                                  MODFLOW-NWT-SWR1 
      U.S. GEOLOGICAL SURVEY MODULAR FINITE-DIFFERENCE GROUNDWATER-FLOW MODEL
                            VERSION 1.1.3, 8/01/2017
                    BASED ON MODFLOW-2005 VERSION 1.11.00 08/08/2013

 LIST FILE: wellsuppirr.lst
                         UNIT    9

 OPENING wellsuppirr.ba6
 FILE TYPE:BAS6   UNIT   75   STATUS:OLD    
 FORMAT:FORMATTED              ACCESS:SEQUENTIAL          

 OPENING wellsuppirr.upw
 FILE TYPE:UPW   UNIT    7   STATUS:OLD    
 FORMAT:FORMATTED              ACCESS:SEQUENTIAL          

 OPENING wellsuppirr.dis
 FILE TYPE:DIS   UNIT    8   STATUS:OLD    
 FORMAT:FORMATTED              ACCESS:SEQUENTIAL          

 OPENING wellsuppirr.nwt
 FILE TYPE:NWT   UNIT   13   STATUS:OLD    
 FORMAT:FORMATTED              ACCESS:SEQUENTIAL          

 OPENING wellsuppirr.oc
 FILE TYPE:OC   UNIT   14   STATUS:OLD    
 FORMAT:FORMATTED              ACCESS:SEQUENTIAL          

 OPENING wellsuppirr.sfr
 FILE TYPE:SFR   UNIT   15   STATUS:OLD    
 FORMAT:FORMATTED              ACCESS:SEQUENTIAL          

 OPENING wellsuppirr.wel
 FILE TYPE:WEL   UNIT   16   STATUS:OLD    
 FORMAT:FORMATTED              ACCESS:SEQUENTIAL          

 OPENING wellsuppirr.ghb
 FILE TYPE:GHB   UNIT   17   STATUS:OLD    
 FORMAT:FORMATTED              ACCESS:SEQUENTIAL          

 OPENING wellsuppirr.uzf
 FILE TYPE:UZF   UNIT   19   STATUS:OLD    
 FORMAT:FORMATTED              ACCESS:SEQUENTIAL          

 OPENING wellsuppirr.gag
 FILE TYPE:GAGE   UNIT   32   STATUS:OLD    
 FORMAT:FORMATTED              ACCESS:SEQUENTIAL          

 OPENING seg1.tab
 FILE TYPE:DATA   UNIT   55   STATUS:UNKNOWN
 FORMAT:FORMATTED              ACCESS:SEQUENTIAL          

 OPENING seg9.tab
 FILE TYPE:DATA   UNIT   56   STATUS:UNKNOWN
 FORMAT:FORMATTED              ACCESS:SEQUENTIAL          

 OPENING wellsuppirr.irs
 FILE TYPE:DATA   UNIT   58   STATUS:UNKNOWN
 FORMAT:FORMATTED              ACCESS:SEQUENTIAL          

 OPENING wellsuppirr.irr
 FILE TYPE:DATA   UNIT   59   STATUS:UNKNOWN
 FORMAT:FORMATTED              ACCESS:SEQUENTIAL          

 OPENING wellsuppirr.sup
 FILE TYPE:DATA   UNIT   60   STATUS:UNKNOWN
 FORMAT:FORMATTED              ACCESS:SEQUENTIAL          

 OPENING wellsuppirr.hed
 FILE TYPE:DATA   UNIT   62   STATUS:UNKNOWN
 FORMAT:FORMATTED              ACCESS:SEQUENTIAL          

 OPENING wellsuppirr.uzfot
 FILE TYPE:DATA(BINARY)   UNIT   61   STATUS:UNKNOWN
 FORMAT:BINARY                 ACCESS:SEQUENTIAL          

 OPENING netfluxin.unf
 FILE TYPE:DATA(BINARY)   UNIT  100   STATUS:UNKNOWN
 FORMAT:BINARY                 ACCESS:SEQUENTIAL          

 OPENING netfluxout.unf
 FILE TYPE:DATA(BINARY)   UNIT  101   STATUS:UNKNOWN
 FORMAT:BINARY                 ACCESS:SEQUENTIAL          

 OPENING cbc.unf
 FILE TYPE:DATA(BINARY)   UNIT  102   STATUS:UNKNOWN
 FORMAT:BINARY                 ACCESS:SEQUENTIAL          

 OPENING wellsuppirr.uzf1
 FILE TYPE:DATA   UNIT   65   STATUS:UNKNOWN
 FORMAT:FORMATTED              ACCESS:SEQUENTIAL          

 OPENING wellsuppirr.uzf2
 FILE TYPE:DATA   UNIT   66   STATUS:UNKNOWN
 FORMAT:FORMATTED              ACCESS:SEQUENTIAL          

 OPENING wellsuppirr.uzf3
 FILE TYPE:DATA   UNIT   67   STATUS:UNKNOWN
 FORMAT:FORMATTED              ACCESS:SEQUENTIAL          

 OPENING wellsuppirr.uzf4
 FILE TYPE:DATA   UNIT   68   STATUS:UNKNOWN
 FORMAT:FORMATTED              ACCESS:SEQUENTIAL          

 OPENING wellsuppirr.flw
 FILE TYPE:DATA   UNIT   81   STATUS:UNKNOWN
 FORMAT:FORMATTED              ACCESS:SEQUENTIAL          

 OPENING wellsuppirr.sg1
 FILE TYPE:DATA   UNIT   83   STATUS:UNKNOWN
 FORMAT:FORMATTED              ACCESS:SEQUENTIAL          

 OPENING wellsuppirr.sg2
 FILE TYPE:DATA   UNIT   84   STATUS:UNKNOWN
 FORMAT:FORMATTED              ACCESS:SEQUENTIAL          

 OPENING wellsuppirr.sg3
 FILE TYPE:DATA   UNIT   85   STATUS:UNKNOWN
 FORMAT:FORMATTED              ACCESS:SEQUENTIAL          

 OPENING wellsuppirr.sg4
 FILE TYPE:DATA   UNIT   86   STATUS:UNKNOWN
 FORMAT:FORMATTED              ACCESS:SEQUENTIAL          

 OPENING wellsuppirr.sg5
 FILE TYPE:DATA   UNIT   87   STATUS:UNKNOWN
 FORMAT:FORMATTED              ACCESS:SEQUENTIAL          

 OPENING wellsuppirr.sg6
 FILE TYPE:DATA   UNIT   88   STATUS:UNKNOWN
 FORMAT:FORMATTED              ACCESS:SEQUENTIAL          

 OPENING wellsuppirr.sg7
 FILE TYPE:DATA   UNIT   89   STATUS:UNKNOWN
 FORMAT:FORMATTED              ACCESS:SEQUENTIAL          

 OPENING wellsuppirr.sg8
 FILE TYPE:DATA   UNIT   90   STATUS:UNKNOWN
 FORMAT:FORMATTED              ACCESS:SEQUENTIAL          

 OPENING wellsuppirr.sg9
 FILE TYPE:DATA   UNIT   91   STATUS:UNKNOWN
 FORMAT:FORMATTED              ACCESS:SEQUENTIAL          

 BAS -- BASIC PACKAGE, VERSION 1.1.3, 8/01/2017 INPUT READ FROM UNIT   75
 
 MODFLOW was compiled using mixed precision
 Precision of REAL variables:           6
 Precision of DOUBLE PRECISION variables:          15

 DISCRETIZATION INPUT DATA READ FROM UNIT    8
 #Test problem 2-- Discretization input
 #Example problem using the UZF1 Package
    1 LAYERS        15 ROWS        10 COLUMNS
   25 STRESS PERIOD(S) IN SIMULATION
 MODEL TIME UNIT IS SECONDS
 MODEL LENGTH UNIT IS FEET
  Confining bed flag for each layer:
   0

                     DELR =   5000.00    

                     DELC =   5000.00    



           TOP ELEVATION OF LAYER 1
 READING ON UNIT    8 WITH FORMAT: (10F7.0)            

            1           2           3           4           5           6           7           8           9          10
 ........................................................................................................................
   1    1105.       1105.       0.000       0.000       0.000       0.000       0.000       0.000       0.000       0.000    
   2    1105.       1095.       1105.       0.000       0.000       1100.       1100.       1110.       0.000       0.000    
   3    0.000       1100.       1085.       1080.       1078.       1076.       1073.       1090.       0.000       0.000    
   4    1110.       1100.       1090.       1085.       1076.       1080.       1080.       1070.       1100.       0.000    
   5    1110.       1100.       1085.       1080.       1078.       1074.       1077.       1066.       1075.       1080.    
   6    1105.       1095.       1080.       1077.       1073.       1069.       1070.       1063.       1085.       1095.    
   7    1105.       1090.       1075.       1072.       1070.       1065.       1065.       1069.       1090.       0.000    
   8    0.000       1080.       1070.       1068.       1063.       1060.       1063.       1067.       1090.       0.000    
   9    0.000       1075.       1065.       1062.       1058.       1052.       1055.       1065.       1090.       0.000    
  10    0.000       1070.       1060.       1055.       1046.       1046.       1044.       1060.       1088.       1100.    
  11    0.000       1055.       1050.       1045.       1041.       1042.       1040.       1050.       1075.       0.000    
  12    1027.       1028.       1028.       1032.       1032.       1033.       1032.       1040.       1060.       0.000    
  13    997.0       1004.       1008.       1014.       1020.       1027.       1032.       1038.       1050.       0.000    
  14    0.000       1030.       1040.       1045.       1050.       1050.       1050.       1050.       1044.       0.000    
  15    0.000       0.000       1080.       1080.       1080.       1080.       0.000       0.000       0.000       0.000    



             MODEL LAYER BOTTOM EL. FOR LAYER   1
 READING ON UNIT    8 WITH FORMAT: (10F7.0)            

            1           2           3           4           5           6           7           8           9          10
 ........................................................................................................................
   1    1000.       1000.       0.000       0.000       0.000       0.000       0.000       0.000       0.000       0.000    
   2    1000.       900.0       900.0       0.000       0.000       950.0       950.0       950.0       0.000       0.000    
   3    0.000       850.0       670.0       680.0       680.0       770.0       770.0       890.0       0.000       0.000    
   4    925.0       850.0       650.0       650.0       650.0       680.0       740.0       850.0       950.0       0.000    
   5    925.0       800.0       650.0       600.0       600.0       600.0       650.0       720.0       850.0       950.0    
   6    925.0       800.0       650.0       600.0       550.0       600.0       650.0       720.0       850.0       970.0    
   7    925.0       800.0       650.0       600.0       550.0       600.0       650.0       720.0       950.0       0.000    
   8    0.000       850.0       700.0       650.0       570.0       600.0       700.0       850.0       950.0       0.000    
   9    0.000       850.0       700.0       650.0       540.0       580.0       700.0       850.0       950.0       0.000    
  10    0.000       850.0       700.0       630.0       530.0       580.0       650.0       800.0       900.0       950.0    
  11    0.000       850.0       700.0       620.0       580.0       620.0       700.0       800.0       900.0       0.000    
  12    900.0       830.0       710.0       640.0       600.0       650.0       700.0       800.0       900.0       0.000    
  13    900.0       810.0       750.0       700.0       650.0       700.0       750.0       800.0       900.0       0.000    
  14    0.000       950.0       850.0       850.0       850.0       850.0       850.0       850.0       850.0       0.000    
  15    0.000       0.000       950.0       950.0       950.0       950.0       0.000       0.000       0.000       0.000    


 STRESS PERIOD     LENGTH       TIME STEPS     MULTIPLIER FOR DELT    SS FLAG
 ----------------------------------------------------------------------------
        1         2628000.          1                    1.000         SS
        2         2628000.         30                    1.000         TR
        3         2628000.         30                    1.000         TR
        4         2628000.         30                    1.000         TR
        5         2628000.         30                    1.000         TR
        6         2628000.         30                    1.000         TR
        7         2628000.         30                    1.000         TR
        8         2628000.         30                    1.000         TR
        9         2628000.         30                    1.000         TR
       10         2628000.         30                    1.000         TR
       11         2628000.         30                    1.000         TR
       12         2628000.         30                    1.000         TR
       13         2628000.         30                    1.000         TR
       14         2628000.         30                    1.000         TR
       15         2628000.         30                    1.000         TR
       16         2628000.         30                    1.000         TR
       17         2628000.         30                    1.000         TR
       18         2628000.         30                    1.000         TR
       19         2628000.         30                    1.000         TR
       20         2628000.         30                    1.000         TR
       21         2628000.         30                    1.000         TR
       22         2628000.         30                    1.000         TR
       23         2628000.         30                    1.000         TR
       24         2628000.         30                    1.000         TR
       25         2628000.         30                    1.000         TR

 COMBINED STEADY-STATE AND TRANSIENT SIMULATION



 
 #Test Simulation 2-- Example problem using the UZF1 Package                     
 #Modified from example Problem 1 of SFR1 documentation report                   
 THE FREE FORMAT OPTION HAS BEEN SELECTED



                     BOUNDARY ARRAY FOR LAYER   1
 READING ON UNIT   75 WITH FORMAT: (20I4)              

                1           2           3           4           5           6           7           8           9          10
 ............................................................................................................................
   1            1           1           0           0           0           0           0           0           0           0
   2            1           1           1           0           0           1           1           1           0           0
   3            0           1           1           1           1           1           1           1           0           0
   4            1           1           1           1           1           1           1           1           1           0
   5            1           1           1           1           1           1           1           1           1           1
   6            1           1           1           1           1           1           1           1           1           1
   7            1           1           1           1           1           1           1           1           1           0
   8            0           1           1           1           1           1           1           1           1           0
   9            0           1           1           1           1           1           1           1           1           0
  10            0           1           1           1           1           1           1           1           1           1
  11            0           1           1           1           1           1           1           1           1           0
  12            1           1           1           1           1           1           1           1           1           0
  13            1           1           1           1           1           1           1           1           1           0
  14            0           1           1           1           1           1           1           1           1           0
  15            0           0           1           1           1           1           0           0           0           0

 AQUIFER HEAD WILL BE SET TO   6999.0     AT ALL NO-FLOW NODES (IBOUND=0).



                       INITIAL HEAD FOR LAYER   1
 READING ON UNIT   75 WITH FORMAT: (10F8.0)            

            1           2           3           4           5           6           7           8           9          10
 ........................................................................................................................
   1    1093.       1089.       6999.       6999.       6999.       6999.       6999.       6999.       6999.       6999.    
   2    1090.       1087.       1081.       6999.       6999.       1072.       1071.       1071.       6999.       6999.    
   3    6999.       1079.       1078.       1074.       1072.       1071.       1069.       1068.       6999.       6999.    
   4    1069.       1071.       1070.       1067.       1065.       1064.       1064.       1066.       1066.       6999.    
   5    1065.       1064.       1063.       1062.       1061.       1061.       1060.       1062.       1066.       1068.    
   6    1060.       1058.       1057.       1056.       1056.       1057.       1057.       1059.       1062.       1066.    
   7    1056.       1053.       1052.       1051.       1051.       1052.       1053.       1055.       1056.       6999.    
   8    6999.       1046.       1046.       1046.       1046.       1046.       1048.       1050.       1050.       6999.    
   9    6999.       1039.       1039.       1039.       1040.       1041.       1042.       1043.       1044.       6999.    
  10    6999.       1031.       1032.       1033.       1034.       1035.       1037.       1038.       1039.       1042.    
  11    6999.       1021.       1023.       1027.       1029.       1030.       1032.       1034.       1036.       6999.    
  12    1001.       1009.       1015.       1020.       1023.       1026.       1029.       1030.       1034.       6999.    
  13    994.5      1000.0       1007.       1013.       1019.       1024.       1029.       1034.       1036.       6999.    
  14    6999.       1004.       1009.       1014.       1019.       1024.       1029.       1035.       1039.       6999.    
  15    6999.       6999.       1012.       1015.       1019.       1022.       6999.       6999.       6999.       6999.    

 OUTPUT CONTROL IS SPECIFIED ONLY AT TIME STEPS FOR WHICH OUTPUT IS DESIRED
 HEADS WILL BE SAVED WITH FORMAT: (10F10.3)           
 SAVED HEADS WILL BE LABELED
 HEAD PRINT FORMAT CODE IS   4    DRAWDOWN PRINT FORMAT CODE IS   0
 HEADS WILL BE SAVED ON UNIT   62    DRAWDOWNS WILL BE SAVED ON UNIT    0
 # NWT Input File
 # Test Problem 3 for MODFLOW-NWT
 #HEADTOL  FLUXTOL MAXITEROUT THICKFACT LINMETH IPRNWT IBOTAV OPTIONS DBDREDUCE DBDINCREASE DBDGAMMA MOMFACT BACKFLAG MAXBACKITER BACKTOL BACKREDUCE

 NWT1 -- Newton Solver, VERSION 1.1.3, 8/01/2017
         INPUT READ FROM UNIT 13

 SPECIFIED OPTION:
 SOLVER INPUT VALUES ARE SPECIFIED BY USER
 ***XMD linear solver will be used***
 
   CONVERGENCE CRITERION OF   0.100000E-04 FOR HEAD SOLUTION
   AND A TOLERANCE OF   0.100000E+03 FOR FLOW SOLUTION AND 
   A MAXIMUM OF   200 OUTER ITERATIONS. 


   D-B-D REDUCTION FACTOR OF    0.990000E+00 AND 
   A D-B-D INCREASE FACTOR OF    0.100000E-04 AND 
   A D-B-D RELAXATION OF    0.000000E+00 AND 
   A MOMENTUM FACTOR OF    0.100000E+00 .


 ***BACKTRACKING IS INACTIVE***
 XMD -- LINEAR SOLUTION BY XMD PACKAGE VERSION 1.30
     BY MOTOMU IBARAKI, OHIO STATE UNIVERSITY, COLOMBUS, OH
                 INPUT READ FROM UNIT 13
 ACCELERATION METHOD                    (IACL) =         2
 NODE ORDERING FLAG                   (NORDER) =         0
 LEVEL OF FILL                         (LEVEL) =        10
 MAXIMUM NUMBER OF ORTHOGONALIZATIONS  (NORTH) =        10
 INDEX FOR USING REDUCED SYSTEM      (IREDSYS) =         1
 RESID. REDUCTION CONVERGE CRITERION  (RRCTOL) =  0.000000E+00
 INDEX FOR USING DROP TOLERANCE     (IDROPTOL) =         1
 DROP TOLERANCE VALUE                  (EPSRN) =  0.500000E-02
 CONVERGENCE CRITERIA OF           (HCLOSEXMD) =  0.100000E-03
 MAX. NUMBER OF LINEAR ITERATIONS  (MXITERXMD) =        50


 UPW1 -- UPSTREAM WEIGHTING FLOW PACKAGE, VERSION 1.1.3, 8/01/2017
         INPUT READ FROM UNIT  7

 #Layer-Property Flow Package input for test simulation 2
 CELL-BY-CELL FLOWS WILL BE SAVED ON UNIT  102
 No named parameters

   LAYER FLAGS:
 LAYER       LAYTYP          LAYAVG    CHANI           LAYVKA           LAYWET
 ---------------------------------------------------------------------------
    1             1             0     1.000E+00             0             0

   INTERPRETATION OF LAYER FLAGS:
                        INTERBLOCK     HORIZONTAL    DATA IN
         LAYER TYPE   TRANSMISSIVITY   ANISOTROPY   ARRAY VKA   WETTABILITY
 LAYER   (LAYTYP)        (LAYAVG)      (CHANI)     (LAYVKA)       (LAYWET)
 ---------------------------------------------------------------------------
    1   CONVERTIBLE      HARMONIC     1.000E+00    VERTICAL K  NON-WETTABLE



              HYD. COND. ALONG ROWS FOR LAYER   1
 READING ON UNIT    7 WITH FORMAT: (10F5.0)            

            1           2           3           4           5           6           7           8           9          10
 ........................................................................................................................
   1   2.0000E-03  2.0000E-03   0.000       0.000       0.000       0.000       0.000       0.000       0.000       0.000    
   2   4.0000E-04  2.0000E-03  2.0000E-03   0.000       0.000      4.0000E-04  4.0000E-04  4.0000E-04   0.000       0.000    
   3    0.000      4.0000E-04  2.0000E-03  2.0000E-03  4.0000E-04  4.0000E-04  4.0000E-04  4.0000E-04   0.000       0.000    
   4   4.0000E-04  4.0000E-04  4.0000E-04  2.0000E-03  2.0000E-03  2.0000E-03  4.0000E-04  4.0000E-04  4.0000E-04   0.000    
   5   4.0000E-04  4.0000E-04  4.0000E-04  2.0000E-03  2.0000E-03  2.0000E-03  2.0000E-03  2.0000E-03  2.0000E-03  2.0000E-03
   6   4.0000E-04  4.0000E-04  4.0000E-04  2.0000E-03  2.0000E-03  2.0000E-03  2.0000E-03  2.0000E-03  4.0000E-04  4.0000E-04
   7   4.0000E-04  4.0000E-04  4.0000E-04  2.0000E-03  2.0000E-03  2.0000E-03  2.0000E-03  2.0000E-03  4.0000E-04   0.000    
   8    0.000      4.0000E-04  4.0000E-04  2.0000E-03  2.0000E-03  2.0000E-03  2.0000E-03  4.0000E-04  4.0000E-04   0.000    
   9    0.000      4.0000E-04  4.0000E-04  2.0000E-03  2.0000E-03  2.0000E-03  2.0000E-03  4.0000E-04  4.0000E-04   0.000    
  10    0.000      4.0000E-04  4.0000E-04  2.0000E-03  2.0000E-03  2.0000E-03  2.0000E-03  4.0000E-04  4.0000E-04  4.0000E-04
  11    0.000      4.0000E-04  4.0000E-04  2.0000E-03  2.0000E-03  2.0000E-03  2.0000E-03  4.0000E-04  4.0000E-04   0.000    
  12   4.0000E-04  4.0000E-04  2.0000E-03  2.0000E-03  2.0000E-03  2.0000E-03  2.0000E-03  4.0000E-04  4.0000E-04   0.000    
  13   2.0000E-03  2.0000E-03  2.0000E-03  2.0000E-03  2.0000E-03  2.0000E-03  2.0000E-03  2.0000E-03  2.0000E-03   0.000    
  14    0.000      4.0000E-04  4.0000E-04  4.0000E-04  4.0000E-04  4.0000E-04  4.0000E-04  4.0000E-04  2.0000E-03   0.000    
  15    0.000       0.000      4.0000E-04  4.0000E-04  4.0000E-04  4.0000E-04   0.000       0.000       0.000       0.000    

      VERTICAL HYD. COND. =  1.000000E-06 FOR LAYER   1

         SPECIFIC STORAGE =  1.000000E-06 FOR LAYER   1



                     SPECIFIC YIELD FOR LAYER   1
 READING ON UNIT    7 WITH FORMAT: (10F5.0)            

            1           2           3           4           5           6           7           8           9          10
 ........................................................................................................................
   1   0.2000      0.2000       0.000       0.000       0.000       0.000       0.000       0.000       0.000       0.000    
   2   0.1000      0.2000      0.2000       0.000       0.000      0.1000      0.1000      0.1000       0.000       0.000    
   3    0.000      0.1000      0.2000      0.2000      0.1000      0.1000      0.1000      0.1000       0.000       0.000    
   4   0.1000      0.1000      0.1000      0.2000      0.2000      0.2000      0.1000      0.1000      0.1000       0.000    
   5   0.1000      0.1000      0.1000      0.2000      0.2000      0.2000      0.2000      0.2000      0.2000      0.2000    
   6   0.1000      0.1000      0.1000      0.2000      0.2000      0.2000      0.2000      0.2000      0.1000      0.1000    
   7   0.1000      0.1000      0.1000      0.2000      0.2000      0.2000      0.2000      0.2000      0.1000       0.000    
   8    0.000      0.1000      0.1000      0.2000      0.2000      0.2000      0.2000      0.1000      0.1000       0.000    
   9    0.000      0.1000      0.1000      0.2000      0.2000      0.2000      0.2000      0.1000      0.1000       0.000    
  10    0.000      0.1000      0.1000      0.2000      0.2000      0.2000      0.2000      0.1000      0.1000      0.1000    
  11    0.000      0.1000      0.1000      0.2000      0.2000      0.2000      0.2000      0.1000      0.1000       0.000    
  12   0.1000      0.1000      0.2000      0.2000      0.2000      0.2000      0.2000      0.1000      0.1000       0.000    
  13   0.2000      0.2000      0.2000      0.2000      0.2000      0.2000      0.2000      0.2000      0.2000       0.000    
  14    0.000      0.1000      0.1000      0.1000      0.1000      0.1000      0.1000      0.1000      0.2000       0.000    
  15    0.000       0.000      0.1000      0.1000      0.1000      0.1000       0.000       0.000       0.000       0.000    

 WEL -- WELL PACKAGE FOR NWT VERSION 1.1.2,  9/15/2016 INPUT READ FROM UNIT   16
 #Well Package input for test simulation 2
 No named parameters

 PROCESSING                  OPTIONS
  Option to pump supplmental water for surface diversion shortfall is activted.  A total of          1supplemental wells are active
  Option to apply pumped water as irrigtion is active. 'Pumped irrigation water will be applied to          1 UZF Cells.

 END PROCESSING                  OPTIONS
 MAXIMUM OF     10 ACTIVE WELLS AT ONE TIME
 No named parameters
  PHIRAMP WILL BE SET TO A DEFAULT VALUE OF 1.0E-5
  WELLS WITH REDUCED PUMPING WILL BE REPORTED TO THE MAIN LISTING FILE


     0 Well parameters

 GHB -- GENERAL-HEAD BOUNDARY PACKAGE, VERSION 7, 5/2/2005
         INPUT READ FROM UNIT   17
 No named parameters
 MAXIMUM OF      2 ACTIVE GHB CELLS AT ONE TIME
 CELL-BY-CELL FLOWS WILL BE PRINTED WHEN ICBCFL NOT 0


     0 GHB parameters

 SFR7 -- STREAMFLOW ROUTING PACKAGE, VERSION 1.0.5, 2012-04-05
         INPUT READ FROM UNIT  15
 #SFR2 Package input for Testing supplimental pumping and irrigation
 No named parameters

 PROCESSING SFR2 OPTIONS
 
Stream loss will be calculated as a factor of the streambed hydraulic conductivity. Multiplication factor is equal to     0.1000000015E+00
          2 Specified inflow files will be read with a maximum of        110 row entries per file
 Option to apply diverted water as irrigtion is active.diverted irrigation water will be applied to          1 UZF Cells.

 END PROCESSING SFR2 OPTIONS


 NUMBER OF STREAM REACHES IS   37

 NUMBER OF STREAM SEGMENTS IS    9

 NUMBER OF STREAM PARAMETERS IS    0

 NUMBER OF STREAM SEGMENTS DEFINED USING PARAMETERS IS              0

 MAXIMUM ERROR FOR STREAM LEAKAGE RATES IS  1.00E-06

 CONSTANT FOR MANNINGS EQUATION IS  1.4860E+00



 STREAM OUTPUT WILL BE WRITTEN TO FILE ON UNIT   81


   STREAM NETWORK DESCRIPTION: 

   LAYER    ROW    COL   SEGMENT   REACH     LENGTH
                          NUMBER   NUMBER    IN CELL        
   --------------------------------------------------
      1      1      1       1        1    4.5000E+03
      1      2      2       1        2    7.0000E+03
      1      3      3       1        3    6.0000E+03
      1      3      4       1        4    5.5500E+03
      1      4      5       2        1    6.5000E+03
      1      5      6       2        2    5.0000E+03
      1      6      6       2        3    5.0000E+03
      1      7      6       2        4    5.0000E+03
      1      8      6       2        5    5.0000E+03
      1      3      5       3        1    5.0000E+03
      1      3      6       3        2    5.0000E+03
      1      3      7       3        3    4.5000E+03
      1      4      8       3        4    6.0000E+03
      1      5      8       3        5    5.0000E+03
      1      6      8       3        6    2.0000E+03
      1      5     10       4        1    2.5000E+03
      1      5      9       4        2    5.0000E+03
      1      6      8       4        3    3.5000E+03
      1      6      8       5        1    4.0000E+03
      1      7      7       5        2    5.0000E+03
      1      8      7       5        3    3.5000E+03
      1      8      6       5        4    2.5000E+03
      1      9      6       6        1    5.0000E+03
      1     10      7       6        2    5.0000E+03
      1     11      7       6        3    5.0000E+03
      1     12      7       6        4    5.0000E+03
      1     13      7       6        5    2.0000E+03
      1     14      9       7        1    5.0000E+03
      1     13      8       7        2    5.5000E+03
      1     13      7       7        3    5.0000E+03
      1     13      6       8        1    5.0000E+03
      1     13      5       8        2    5.0000E+03
      1     13      4       8        3    5.0000E+03
      1     13      3       8        4    5.0000E+03
      1     13      2       8        5    5.0000E+03
      1     13      1       8        6    3.0000E+03
      1      6      8       9        1    5.0000E+01




 UZF1 -- UNSATURATED FLOW PACKAGE, VERSION 1.4, 02/06/2012
         INPUT READ FROM UNIT 19
 #UZF Package input for test simulation 2
 No named parameters

 PROCESSING UZF OPTIONS
 
 INITIAL WATER CONTENT (THTI) WILL BE 
READ FOR THE FIRST SS OR TR STRESS PERIOD
 
 
 RESIDUAL WATER CONTENT (THTR) WILL BE 
READ AND USED FOR THE FIRST TRANSIENT STRESS 
PERIOD
 
  OUTPUT WILL BE WRITTEN TO NETRECH AND NETDIS FILES WITH UNIT NUMBERS        100       101, RESPECTIVELY
 
 A SQUARE ET FUNCTION WILL BE USED TO SIMULATE GW ET
 
           1
INFILTRATION WILL BE REJECTED USING 
LAND SURFACE K
 
 
HYDRAULIC CONDUCTIVITY OF LAND SURFACE 
WILL BE READ
 
 
AGRICULTURAL DEMANDS WILL BE 
CALCULATED USING ET DEFICIT
 

 END PROCESSING UZF OPTIONS



            AREAL EXTENT OF UZ FLOW
 READING ON UNIT   19 WITH FORMAT: (20I4)              

                1           2           3           4           5           6           7           8           9          10
 ............................................................................................................................
   1            1           1           0           0           0           0           0           0           0           0
   2            1           1           1           0           0           1           1           1           0           0
   3            0           1           1           1           1           1           1           1           0           0
   4            1           1           1           1           1           1           1           1           1           0
   5            1           1           1           1           1           1           1           1           1           1
   6            1           1           1           1           1           1           1           1           1           1
   7            1           1           1           1           1           1           1           1           1           0
   8            0           1           1           1           1           1           1           1           1           0
   9            0           1           1           1           1           1           1           1           1           0
  10            0           1           1           1           1           1           1           1           1           1
  11            0           1           1           1           1           1           1           1           1           0
  12            1           1           1           1           1           1           1           1           1           0
  13            1           1           1           1           1           1           1           1           1           0
  14            0           1           1           1           1           1           1           1           1           0
  15            0           0           1           1           1           1           0           0           0           0
 OPTION 1 -- RECHARGE IN UZF TO TOP LAYER ONLY 



            ROUTING OVERLAND RUNOFF
 READING ON UNIT   19 WITH FORMAT: (20I4)              

                1           2           3           4           5           6           7           8           9          10
 ............................................................................................................................
   1            1           1           0           0           0           0           0           0           0           0
   2            1           1           1           0           0           3           3           3           0           0
   3            0           1           1           1           3           3           3           3           0           0
   4            8           8           2           2           2           2           2           3           3           0
   5            8           8           8           8           2           2           2           3           4           4
   6            8           8           8           8           8           2           2           4           4           4
   7            8           8           8           8           8           2           5           5           5           0
   8            0           8           8           8           8           2           5           5           5           0
   9            0           8           8           8           8           6           6           6           6           0
  10            0           8           8           8           8           6           6           6           6           6
  11            0           8           8           8           8           8           6           6           7           0
  12            8           8           8           8           8           8           6           7           7           0
  13            8           8           8           8           8           8           7           7           7           0
  14            0           8           8           8           8           8           7           7           7           0
  15            0           0           8           8           8           8           0           0           0           0



               SATURATED VERTICAL K
 READING ON UNIT   19 WITH FORMAT: (10F4.0)            

            1           2           3           4           5           6           7           8           9          10
 ........................................................................................................................
   1   5.0000E-06  5.0000E-06   0.000       0.000       0.000       0.000       0.000       0.000       0.000       0.000    
   2   5.0000E-06  5.0000E-06  5.0000E-06   0.000       0.000      5.0000E-06  5.0000E-06  5.0000E-06   0.000       0.000    
   3    0.000      5.0000E-06  5.0000E-06  5.0000E-06  5.0000E-06  5.0000E-06  5.0000E-06  5.0000E-06   0.000       0.000    
   4   5.0000E-06  5.0000E-06  5.0000E-06  5.0000E-06  5.0000E-06  5.0000E-06  5.0000E-06  5.0000E-06  5.0000E-06   0.000    
   5   5.0000E-06  5.0000E-06  5.0000E-06  5.0000E-06  5.0000E-06  5.0000E-06  5.0000E-06  5.0000E-06  5.0000E-06  5.0000E-06
   6   5.0000E-06  5.0000E-06  5.0000E-06  5.0000E-06  5.0000E-06  5.0000E-06  5.0000E-06  5.0000E-06  5.0000E-06  5.0000E-06
   7   5.0000E-06  5.0000E-06  5.0000E-06  5.0000E-06  5.0000E-06  5.0000E-06  5.0000E-06  5.0000E-06  5.0000E-06   0.000    
   8    0.000      5.0000E-06  5.0000E-06  5.0000E-06  5.0000E-06  5.0000E-06  5.0000E-06  5.0000E-06  5.0000E-06   0.000    
   9    0.000      5.0000E-06  5.0000E-06  5.0000E-06  5.0000E-06  5.0000E-06  5.0000E-06  5.0000E-06  5.0000E-06   0.000    
  10    0.000      5.0000E-06  5.0000E-06  5.0000E-06  5.0000E-06  5.0000E-06  5.0000E-06  5.0000E-06  5.0000E-06  5.0000E-06
  11    0.000      5.0000E-06  5.0000E-06  5.0000E-06  5.0000E-06  5.0000E-06  5.0000E-06  5.0000E-06  5.0000E-06   0.000    
  12   5.0000E-06  5.0000E-06  5.0000E-06  5.0000E-06  5.0000E-06  5.0000E-06  5.0000E-06  5.0000E-06  5.0000E-06   0.000    
  13   5.0000E-06  5.0000E-06  5.0000E-06  5.0000E-06  5.0000E-06  5.0000E-06  5.0000E-06  5.0000E-06  5.0000E-06   0.000    
  14    0.000      5.0000E-06  5.0000E-06  5.0000E-06  5.0000E-06  5.0000E-06  5.0000E-06  5.0000E-06  5.0000E-06   0.000    
  15    0.000       0.000      5.0000E-06  5.0000E-06  5.0000E-06  5.0000E-06   0.000       0.000       0.000       0.000    



            LAND SURFACE VERTICAL K
 READING ON UNIT   19 WITH FORMAT: (10F4.0)            

            1           2           3           4           5           6           7           8           9          10
 ........................................................................................................................
   1   5.0000E-06  5.0000E-06   0.000       0.000       0.000       0.000       0.000       0.000       0.000       0.000    
   2   5.0000E-06  5.0000E-06  5.0000E-06   0.000       0.000      5.0000E-06  5.0000E-06  5.0000E-06   0.000       0.000    
   3    0.000      5.0000E-06  5.0000E-06  5.0000E-06  5.0000E-06  5.0000E-06  5.0000E-06  5.0000E-06   0.000       0.000    
   4   5.0000E-06  5.0000E-06  5.0000E-06  5.0000E-06  5.0000E-06  5.0000E-06  5.0000E-06  5.0000E-06  5.0000E-06   0.000    
   5   5.0000E-06  5.0000E-06  5.0000E-06  5.0000E-06  5.0000E-06  5.0000E-06  5.0000E-06  5.0000E-06  5.0000E-06  5.0000E-06
   6   5.0000E-06  5.0000E-06  5.0000E-06  5.0000E-06  5.0000E-06  5.0000E-06  5.0000E-06  5.0000E-06  5.0000E-06  5.0000E-06
   7   5.0000E-06  5.0000E-06  5.0000E-06  5.0000E-06  5.0000E-06  5.0000E-06  5.0000E-06  5.0000E-06  5.0000E-06   0.000    
   8    0.000      5.0000E-06  5.0000E-06  5.0000E-06  5.0000E-06  5.0000E-06  5.0000E-06  5.0000E-06  5.0000E-06   0.000    
   9    0.000      5.0000E-06  5.0000E-06  5.0000E-06  5.0000E-06  5.0000E-06  5.0000E-06  5.0000E-06  5.0000E-06   0.000    
  10    0.000      5.0000E-06  5.0000E-06  5.0000E-06  5.0000E-06  5.0000E-06  5.0000E-06  5.0000E-06  5.0000E-06  5.0000E-06
  11    0.000      5.0000E-06  5.0000E-06  5.0000E-06  5.0000E-06  5.0000E-06  5.0000E-06  5.0000E-06  5.0000E-06   0.000    
  12   5.0000E-06  5.0000E-06  5.0000E-06  5.0000E-06  5.0000E-06  5.0000E-06  5.0000E-06  5.0000E-06  5.0000E-06   0.000    
  13   5.0000E-06  5.0000E-06  5.0000E-06  5.0000E-06  5.0000E-06  5.0000E-06  5.0000E-06  5.0000E-06  5.0000E-06   0.000    
  14    0.000      5.0000E-06  5.0000E-06  5.0000E-06  5.0000E-06  5.0000E-06  5.0000E-06  5.0000E-06  5.0000E-06   0.000    
  15    0.000       0.000      5.0000E-06  5.0000E-06  5.0000E-06  5.0000E-06   0.000       0.000       0.000       0.000    

     BROOKS-COREY EPSILON =   5.50000    

  SATURATED WATER CONTENT =  0.220000    

   RESIDUAL WATER CONTENT =  5.000000E-02

    INITIAL WATER CONTENT =  0.100000    

UNSATURATED FLOW RESULTS WILL BE PRINTED TO SEPARATE FILES FOR SELECTED MODEL CELLS, AND TIME STEPS AS DEFINED BY OUTPUT CONTROL PACKAGE 

SELECTED MODEL CELLS ARE: 
 ROW NUMBER  COLUMN NUMBER  FORTRAN UNIT NUMBER  OUTPUT OPTION


       3             6                 65                 1
       6             8                 66                 2
       6             7                 67                 3
       0             0                 68                 4



   9 GAGING STATIONS WERE SPECIFIED.
     (Lakes are identified by a negative value of the Lake Number)
     RECORDS WILL BE WRITTEN TO SEPARATE OUTPUT FILES REPRESENTED BY FOLLOWING UNIT NUMBERS:

 Stream Gages:
  GAGE #   SEGMENT   REACH   UNIT   OUTTYPE
       1       1       4      83       1
       2       2       3      84       1
       3       3       5      85       1
       4       4       3      86       1
       5       5       4      87       4
       6       6       5      88       4
       7       7       3      89       4
       8       8       6      90       4
       9       9       1      91       5




1
                            STRESS PERIOD NO.    1, LENGTH =   2628000.    
                            -----------------------------------------------

                              NUMBER OF TIME STEPS =     1

                               MULTIPLIER FOR DELT =     1.000

                            INITIAL TIME STEP SIZE =   2628000.    

 WELL NO.  LAYER   ROW   COL   STRESS RATE         
 --------------------------------------------------
      1      1      6      4       0.000    
      2      1      6      7       0.000    
      3      1      7      4       0.000    
      4      1      7      5       0.000    
      5      1      8      4       0.000    
      6      1      8      5       0.000    
      7      1      9      4       0.000    
      8      1      9      5       0.000    
      9      1     10      4       0.000    
     10      1     10      5       0.000    
 #WELL NUMBER, numsegs, supfact, SEGMENT NUMBER
 #
 # WELL#,NUMCELLS,EFF_FACT1,percent1, ROW1,COL1,EFF_FACT1,percent1, ROW2,COL2,ETC.

     10 WELLS

 BOUND. NO. LAYER   ROW   COL     STAGE      CONDUCTANCE         
 ----------------------------------------------------------------
      1      1     13      1       988.0          0.3800E-01
      2      1     14      9       1045.          0.3800E-01

      2 GHB CELLS



 CLASSIFICATION & COUNT OF STREAM SEGMENTS BASED ON SOURCE OF INFLOW:

                HEADWATER     DIVERSION     RECEIVES TRIBUTARY FLOW
                ---------     ---------     -----------------------
                     3              2               4



                    INPUT DATA FOR EACH STREAM SEGMENT
 ---------------------------------------------------------------------------------------------

 SEGMENT    SEG.     INFLOW   OVERLAND   STREAM    STREAM   ICALC  OUTFLOW  DIVERSION PRIORITY
    NO.    LENGTH     RATE     RUNOFF      ET       PPT.    METH.  TO SEG.  FROM SEG.    NO.

      1  2.305E+04 2.500E+01 0.000E+00 0.000E+00 0.000E+00    4        2        0        0
      2  2.650E+04 0.000E+00 0.000E+00 0.000E+00 0.000E+00    1        6        0        0
      3  2.750E+04 2.000E+00 0.000E+00 0.000E+00 0.000E+00    0        5        1        0
      4  1.100E+04 1.000E+01 0.000E+00 0.000E+00 0.000E+00    1        5        0        0
      5  1.500E+04 0.000E+00 0.000E+00 0.000E+00 0.000E+00    3        6        0        0
      6  2.200E+04 0.000E+00 0.000E+00 0.000E+00 0.000E+00    1        8        0        0
      7  1.550E+04 1.500E+02 0.000E+00 0.000E+00 0.000E+00    2        8        0        0
      8  2.800E+04 0.000E+00 0.000E+00 0.000E+00 0.000E+00    2        0        0        0
      9  5.000E+01 0.000E+00 0.000E+00 0.000E+00 0.000E+00    1        0        2        0


         STREAMBED PROPERTIES AND STREAM DIMENSIONS

 SEGMENT     BED HYD. COND.      BED THICKNESS     ELEV.-TOP OF BED     WIDTH OF STREAM     DEPTH OF STREAM    STREAM ROUGHNESS
    No.     UPPER     LOWER     UPPER     LOWER     UPPER     LOWER     UPPER     LOWER     UPPER     LOWER   CHANNEL      BANK

     1  3.000E-05 3.000E-05 3.000E+00 3.000E+00 1.095E+03 1.075E+03
     2  3.000E-05 3.000E-05 3.000E+00 3.000E+00 1.075E+03 1.050E+03 1.200E+01 1.200E+01                     3.000E-02
     3  3.000E-05 3.000E-05 2.000E+00 2.000E+00 1.075E+03 1.060E+03 1.000E+01 6.000E+00 2.000E+00 1.000E+00
     4  3.000E-05 3.000E-05 3.000E+00 3.000E+00 1.080E+03 1.060E+03 1.000E+01 1.000E+01                     3.000E-02
     5  3.000E-05 3.000E-05 3.000E+00 3.000E+00 1.060E+03 1.045E+03
     6  3.000E-05 3.000E-05 3.000E+00 3.000E+00 1.045E+03 1.025E+03 1.200E+01 1.200E+01                     3.000E-02
     7  6.000E-05 6.000E-05 3.000E+00 3.000E+00 1.040E+03 1.025E+03                                         2.500E-02 4.500E-02
     8  6.000E-05 6.000E-05 3.000E+00 3.000E+00 1.025E+03 9.900E+02                                         2.500E-02 4.500E-02
     9  0.000E+00 0.000E+00 3.000E+00 3.000E+00 1.079E+03 1.078E+03 4.000E+00 4.000E+00                     3.000E-02

  EIGHT POINT CROSS-SECTION DATA FOR SEGMENTS WITH ICALC = 2
    X VALUES X VALUES START FROM LEFT SIDE LOOKING DOWNSTREAM

     SEGMENT NO.        X1        X2        X3        X4        X5        X6        X7        X8
            7      0.000E+00 1.000E+01 8.000E+01 1.000E+02 1.500E+02 1.700E+02 2.400E+02 2.500E+02
            8      0.000E+00 1.000E+01 8.000E+01 1.000E+02 1.500E+02 1.700E+02 2.400E+02 2.500E+02

    Z VALUES ARE RELATIVE TO STREAMBED ELEVATION

     SEGMENT NO.          Z1        Z2        Z3        Z4        Z5        Z6        Z7        Z8
            7      2.000E+01 1.300E+01 1.000E+01 2.000E+00 0.000E+00 1.000E+01 1.300E+01 2.000E+01
            8      2.500E+01 1.700E+01 1.300E+01 4.000E+00 0.000E+00 1.000E+01 1.600E+01 2.000E+01

 STREAMFLOW RELATION WITH DEPTH IS BASED ON EQUATION Q = CDPTH*(DEPTH)**FDPTH
 STREAMFLOW RELATION WITH WIDTH IS BASED ON EQUATION Q = AWDTH*(WIDTH)**BWDTH

 SEGMENT NO.      CDPTH     FDPTH    AWDTH     BWDTH

          5 3.000E-01 3.500E-01 3.800E+00 6.000E-01

 STREAMFLOW RELATION WITH DEPTH AND WIDTH IS BASED ON TABULATED VALUES

  SEGMENT NO.   STREAMFLOW       DEPTH       WIDTH

          1     5.0000E-01   2.5000E-01   3.0000E+00
          1     1.0000E+00   4.0000E-01   3.5000E+00
          1     2.0000E+00   5.5000E-01   4.2000E+00
          1     4.0000E+00   7.0000E-01   5.3000E+00
          1     7.0000E+00   8.0000E-01   7.0000E+00
          1     1.0000E+01   9.0000E-01   8.5000E+00
          1     2.0000E+01   1.1000E+00   1.2000E+01
          1     3.0000E+01   1.2500E+00   1.4000E+01
          1     5.0000E+01   1.4000E+00   1.7000E+01
          1     7.5000E+01   1.7000E+00   2.0000E+01
          1     1.0000E+02   1.8000E+00   2.2000E+01



TABULAR INFLOWS WERE READ FOR SEGMENT      1
FROM FILE UNIT NUMBER     55

          TIMES                    INFLOWS
             0.0000000000         0.0000000000
       2630000.0000000000        22.0000000000
       5260000.0000000000        42.0000000000
       7880000.0000000000        77.0000000000
      10500000.0000000000        28.0000000000
      13100000.0000000000        99.0000000000
      15800000.0000000000        63.0000000000
      18400000.0000000000        35.0000000000
      21000000.0000000000        21.0000000000
      23700000.0000000000         7.0000000000
      26300000.0000000000         3.5000000000
      28900000.0000000000         3.2999999523
      31500000.0000000000         3.0999999046
      34200000.0000000000        10.5000000000
      36800000.0000000000        21.0000000000
      39400000.0000000000        98.0000000000
      42000000.0000000000        35.0000000000
      44700000.0000000000        63.0000000000
      47300000.0000000000        28.0000000000
      49900000.0000000000        14.0000000000
      52600000.0000000000         7.0000000000
      55200000.0000000000         3.5000000000
      57800000.0000000000         3.2000000477
      60400000.0000000000         3.5000000000
      63100000.0000000000         3.5000000000
      65700000.0000000000        14.0000000000
TABULAR INFLOWS WERE READ FOR SEGMENT      9
FROM FILE UNIT NUMBER     56

          TIMES                    INFLOWS
             0.0000000000         0.0000000000
        600000.0000000000         0.0000000000
       1200000.0000000000         0.0000000000
       1800000.0000000000         0.0000000000
       2400000.0000000000         0.0000000000
       3000000.0000000000         0.0000000000
       3600000.0000000000         0.0000000000
       4200000.0000000000         0.0000000000
       4800000.0000000000         0.0000000000
       5400000.0000000000         0.0000000000
       6000000.0000000000         0.0000000000
       6600000.0000000000         0.0000000000
       7200000.0000000000         0.0000000000
       7800000.0000000000         0.0000000000
       8400000.0000000000         0.0000000000
       9000000.0000000000         0.0000000000
       9600000.0000000000         0.0000000000
      10200000.0000000000         0.0000000000
      10800000.0000000000         0.0000000000
      11400000.0000000000         0.0000000000
      12000000.0000000000        20.0000000000
      12600000.0000000000        20.0000000000
      13200000.0000000000        20.0000000000
      13800000.0000000000        20.0000000000
      14400000.0000000000        20.0000000000
      15000000.0000000000        20.0000000000
      15600000.0000000000        20.0000000000
      16200000.0000000000        20.0000000000
      16800000.0000000000        20.0000000000
      17400000.0000000000        20.0000000000
      18000000.0000000000        20.0000000000
      18600000.0000000000        20.0000000000
      19200000.0000000000        20.0000000000
      19800000.0000000000        20.0000000000
      20400000.0000000000        20.0000000000
      21000000.0000000000        20.0000000000
      21600000.0000000000        20.0000000000
      22200000.0000000000        20.0000000000
      22800000.0000000000        20.0000000000
      23400000.0000000000        20.0000000000
      24000000.0000000000        20.0000000000
      24600000.0000000000        20.0000000000
      25200000.0000000000        20.0000000000
      25800000.0000000000         0.0000000000
      26400000.0000000000         0.0000000000
      27000000.0000000000         0.0000000000
      27600000.0000000000         0.0000000000
      28200000.0000000000         0.0000000000
      28800000.0000000000         0.0000000000
      29400000.0000000000         0.0000000000
      30000000.0000000000         0.0000000000
      30600000.0000000000         0.0000000000
      31200000.0000000000         0.0000000000
      31800000.0000000000         0.0000000000
      32400000.0000000000         0.0000000000
      33000000.0000000000         0.0000000000
      33600000.0000000000         0.0000000000
      34200000.0000000000         0.0000000000
      34800000.0000000000         0.0000000000
      35400000.0000000000         0.0000000000
      36000000.0000000000         0.0000000000
      36600000.0000000000         0.0000000000
      37200000.0000000000         0.0000000000
      37800000.0000000000         0.0000000000
      38400000.0000000000         0.0000000000
      39000000.0000000000         0.0000000000
      39600000.0000000000         0.0000000000
      40200000.0000000000         0.0000000000
      40800000.0000000000         0.0000000000
      41400000.0000000000         0.0000000000
      42000000.0000000000         0.0000000000
      42600000.0000000000         0.0000000000
      43200000.0000000000        20.0000000000
      43800000.0000000000        20.0000000000
      44400000.0000000000        20.0000000000
      45000000.0000000000        20.0000000000
      45600000.0000000000        20.0000000000
      46200000.0000000000        20.0000000000
      46800000.0000000000        20.0000000000
      47400000.0000000000        20.0000000000
      48000000.0000000000        20.0000000000
      48600000.0000000000        20.0000000000
      49200000.0000000000        20.0000000000
      49800000.0000000000        20.0000000000
      50400000.0000000000        20.0000000000
      51000000.0000000000        20.0000000000
      51600000.0000000000        20.0000000000
      52200000.0000000000        20.0000000000
      52800000.0000000000        20.0000000000
      53400000.0000000000        20.0000000000
      54000000.0000000000        20.0000000000
      54600000.0000000000        20.0000000000
      55200000.0000000000        20.0000000000
      55800000.0000000000        20.0000000000
      56400000.0000000000        20.0000000000
      57000000.0000000000         0.0000000000
      57600000.0000000000         0.0000000000
      58200000.0000000000         0.0000000000
      58800000.0000000000         0.0000000000
      59400000.0000000000         0.0000000000
      60000000.0000000000         0.0000000000
      60600000.0000000000         0.0000000000
      61200000.0000000000         0.0000000000
      61800000.0000000000         0.0000000000
      62400000.0000000000         0.0000000000
      63000000.0000000000         0.0000000000
      63600000.0000000000         0.0000000000
      64200000.0000000000         0.0000000000
      64800000.0000000000         0.0000000000
      65400000.0000000000         0.0000000000



            AREAL INFILTRATION RATE
 READING ON UNIT   19 WITH FORMAT: (10F4.0)            

            1           2           3           4           5           6           7           8           9          10
 ........................................................................................................................
   1   1.0000E-10  2.0000E-10   0.000       0.000       0.000       0.000       0.000       0.000       0.000       0.000    
   2   2.0000E-10  1.0000E-10  2.0000E-10   0.000       0.000      8.0000E-10  8.0000E-10  5.0000E-10   0.000       0.000    
   3    0.000      5.0000E-10  1.0000E-10  1.0000E-10  8.0000E-10  8.0000E-10  5.0000E-10  5.0000E-10   0.000       0.000    
   4   8.0000E-10  5.0000E-10  1.0000E-10  1.0000E-10  1.0000E-10  1.0000E-10  1.0000E-10  1.0000E-10  2.0000E-10   0.000    
   5   8.0000E-10  5.0000E-10  1.0000E-10  1.0000E-10  1.0000E-10  1.0000E-10  1.0000E-10  1.0000E-10  1.0000E-10  1.0000E-10
   6   8.0000E-10  5.0000E-10  5.0000E-10  2.0000E-10  2.0000E-10  1.0000E-10  1.0000E-10  1.0000E-10  1.0000E-10  5.0000E-10
   7   8.0000E-10  5.0000E-10  5.0000E-10  2.0000E-10  2.0000E-10  1.0000E-10  1.0000E-10  2.0000E-10  2.0000E-10   0.000    
   8    0.000      5.0000E-10  5.0000E-10  2.0000E-10  2.0000E-10  1.0000E-10  1.0000E-10  2.0000E-10  5.0000E-10   0.000    
   9    0.000      5.0000E-10  5.0000E-10  2.0000E-10  2.0000E-10  1.0000E-10  1.0000E-10  2.0000E-10  5.0000E-10   0.000    
  10    0.000      5.0000E-10  5.0000E-10  2.0000E-10  2.0000E-10  1.0000E-10  1.0000E-10  2.0000E-10  5.0000E-10  8.0000E-10
  11    0.000      1.0000E-10  1.0000E-10  1.0000E-10  1.0000E-10  1.0000E-10  1.0000E-10  2.0000E-10  5.0000E-10   0.000    
  12   1.0000E-10  1.0000E-10  1.0000E-10  1.0000E-10  1.0000E-10  1.0000E-10  1.0000E-10  1.0000E-10  2.0000E-10   0.000    
  13   1.0000E-10  1.0000E-10  2.0000E-10  2.0000E-10  2.0000E-10  2.0000E-10  2.0000E-10  1.0000E-10  1.0000E-10   0.000    
  14    0.000      2.0000E-10  5.0000E-10  5.0000E-10  5.0000E-10  5.0000E-10  5.0000E-10  2.0000E-10  1.0000E-10   0.000    
  15    0.000       0.000      8.0000E-10  8.0000E-10  8.0000E-10  8.0000E-10   0.000       0.000       0.000       0.000    

                  ET RATE =  1.000000E-08

      ET EXTINCTION DEPTH =   5.00000    

 EXTINCTION WATER CONTENT =  5.000000E-02

EXTINCTION WATER CONTENT FOR CELL AT ROW     1, COLUMN     1 IS LESS THAN RESIDUAL WATER CONTENT-- SETTING EXTINCTION WATER CONTENT EQUAL TO RESIDUAL WATER CONTENT

EXTINCTION WATER CONTENT FOR CELL AT ROW     1, COLUMN     2 IS LESS THAN RESIDUAL WATER CONTENT-- SETTING EXTINCTION WATER CONTENT EQUAL TO RESIDUAL WATER CONTENT

EXTINCTION WATER CONTENT FOR CELL AT ROW     2, COLUMN     1 IS LESS THAN RESIDUAL WATER CONTENT-- SETTING EXTINCTION WATER CONTENT EQUAL TO RESIDUAL WATER CONTENT

EXTINCTION WATER CONTENT FOR CELL AT ROW     2, COLUMN     2 IS LESS THAN RESIDUAL WATER CONTENT-- SETTING EXTINCTION WATER CONTENT EQUAL TO RESIDUAL WATER CONTENT

EXTINCTION WATER CONTENT FOR CELL AT ROW     2, COLUMN     3 IS LESS THAN RESIDUAL WATER CONTENT-- SETTING EXTINCTION WATER CONTENT EQUAL TO RESIDUAL WATER CONTENT

EXTINCTION WATER CONTENT FOR CELL AT ROW     2, COLUMN     6 IS LESS THAN RESIDUAL WATER CONTENT-- SETTING EXTINCTION WATER CONTENT EQUAL TO RESIDUAL WATER CONTENT

EXTINCTION WATER CONTENT FOR CELL AT ROW     2, COLUMN     7 IS LESS THAN RESIDUAL WATER CONTENT-- SETTING EXTINCTION WATER CONTENT EQUAL TO RESIDUAL WATER CONTENT

EXTINCTION WATER CONTENT FOR CELL AT ROW     2, COLUMN     8 IS LESS THAN RESIDUAL WATER CONTENT-- SETTING EXTINCTION WATER CONTENT EQUAL TO RESIDUAL WATER CONTENT

EXTINCTION WATER CONTENT FOR CELL AT ROW     3, COLUMN     2 IS LESS THAN RESIDUAL WATER CONTENT-- SETTING EXTINCTION WATER CONTENT EQUAL TO RESIDUAL WATER CONTENT

EXTINCTION WATER CONTENT FOR CELL AT ROW     3, COLUMN     3 IS LESS THAN RESIDUAL WATER CONTENT-- SETTING EXTINCTION WATER CONTENT EQUAL TO RESIDUAL WATER CONTENT

EXTINCTION WATER CONTENT FOR CELL AT ROW     3, COLUMN     4 IS LESS THAN RESIDUAL WATER CONTENT-- SETTING EXTINCTION WATER CONTENT EQUAL TO RESIDUAL WATER CONTENT

EXTINCTION WATER CONTENT FOR CELL AT ROW     3, COLUMN     5 IS LESS THAN RESIDUAL WATER CONTENT-- SETTING EXTINCTION WATER CONTENT EQUAL TO RESIDUAL WATER CONTENT

EXTINCTION WATER CONTENT FOR CELL AT ROW     3, COLUMN     6 IS LESS THAN RESIDUAL WATER CONTENT-- SETTING EXTINCTION WATER CONTENT EQUAL TO RESIDUAL WATER CONTENT

EXTINCTION WATER CONTENT FOR CELL AT ROW     3, COLUMN     7 IS LESS THAN RESIDUAL WATER CONTENT-- SETTING EXTINCTION WATER CONTENT EQUAL TO RESIDUAL WATER CONTENT

EXTINCTION WATER CONTENT FOR CELL AT ROW     3, COLUMN     8 IS LESS THAN RESIDUAL WATER CONTENT-- SETTING EXTINCTION WATER CONTENT EQUAL TO RESIDUAL WATER CONTENT

EXTINCTION WATER CONTENT FOR CELL AT ROW     4, COLUMN     1 IS LESS THAN RESIDUAL WATER CONTENT-- SETTING EXTINCTION WATER CONTENT EQUAL TO RESIDUAL WATER CONTENT

EXTINCTION WATER CONTENT FOR CELL AT ROW     4, COLUMN     2 IS LESS THAN RESIDUAL WATER CONTENT-- SETTING EXTINCTION WATER CONTENT EQUAL TO RESIDUAL WATER CONTENT

EXTINCTION WATER CONTENT FOR CELL AT ROW     4, COLUMN     3 IS LESS THAN RESIDUAL WATER CONTENT-- SETTING EXTINCTION WATER CONTENT EQUAL TO RESIDUAL WATER CONTENT

EXTINCTION WATER CONTENT FOR CELL AT ROW     4, COLUMN     4 IS LESS THAN RESIDUAL WATER CONTENT-- SETTING EXTINCTION WATER CONTENT EQUAL TO RESIDUAL WATER CONTENT

EXTINCTION WATER CONTENT FOR CELL AT ROW     4, COLUMN     5 IS LESS THAN RESIDUAL WATER CONTENT-- SETTING EXTINCTION WATER CONTENT EQUAL TO RESIDUAL WATER CONTENT

EXTINCTION WATER CONTENT FOR CELL AT ROW     4, COLUMN     6 IS LESS THAN RESIDUAL WATER CONTENT-- SETTING EXTINCTION WATER CONTENT EQUAL TO RESIDUAL WATER CONTENT

EXTINCTION WATER CONTENT FOR CELL AT ROW     4, COLUMN     7 IS LESS THAN RESIDUAL WATER CONTENT-- SETTING EXTINCTION WATER CONTENT EQUAL TO RESIDUAL WATER CONTENT

EXTINCTION WATER CONTENT FOR CELL AT ROW     4, COLUMN     8 IS LESS THAN RESIDUAL WATER CONTENT-- SETTING EXTINCTION WATER CONTENT EQUAL TO RESIDUAL WATER CONTENT

EXTINCTION WATER CONTENT FOR CELL AT ROW     4, COLUMN     9 IS LESS THAN RESIDUAL WATER CONTENT-- SETTING EXTINCTION WATER CONTENT EQUAL TO RESIDUAL WATER CONTENT

EXTINCTION WATER CONTENT FOR CELL AT ROW     5, COLUMN     1 IS LESS THAN RESIDUAL WATER CONTENT-- SETTING EXTINCTION WATER CONTENT EQUAL TO RESIDUAL WATER CONTENT

EXTINCTION WATER CONTENT FOR CELL AT ROW     5, COLUMN     2 IS LESS THAN RESIDUAL WATER CONTENT-- SETTING EXTINCTION WATER CONTENT EQUAL TO RESIDUAL WATER CONTENT

EXTINCTION WATER CONTENT FOR CELL AT ROW     5, COLUMN     3 IS LESS THAN RESIDUAL WATER CONTENT-- SETTING EXTINCTION WATER CONTENT EQUAL TO RESIDUAL WATER CONTENT

EXTINCTION WATER CONTENT FOR CELL AT ROW     5, COLUMN     4 IS LESS THAN RESIDUAL WATER CONTENT-- SETTING EXTINCTION WATER CONTENT EQUAL TO RESIDUAL WATER CONTENT

EXTINCTION WATER CONTENT FOR CELL AT ROW     5, COLUMN     5 IS LESS THAN RESIDUAL WATER CONTENT-- SETTING EXTINCTION WATER CONTENT EQUAL TO RESIDUAL WATER CONTENT

EXTINCTION WATER CONTENT FOR CELL AT ROW     5, COLUMN     6 IS LESS THAN RESIDUAL WATER CONTENT-- SETTING EXTINCTION WATER CONTENT EQUAL TO RESIDUAL WATER CONTENT

EXTINCTION WATER CONTENT FOR CELL AT ROW     5, COLUMN     7 IS LESS THAN RESIDUAL WATER CONTENT-- SETTING EXTINCTION WATER CONTENT EQUAL TO RESIDUAL WATER CONTENT

EXTINCTION WATER CONTENT FOR CELL AT ROW     5, COLUMN     8 IS LESS THAN RESIDUAL WATER CONTENT-- SETTING EXTINCTION WATER CONTENT EQUAL TO RESIDUAL WATER CONTENT

EXTINCTION WATER CONTENT FOR CELL AT ROW     5, COLUMN     9 IS LESS THAN RESIDUAL WATER CONTENT-- SETTING EXTINCTION WATER CONTENT EQUAL TO RESIDUAL WATER CONTENT

EXTINCTION WATER CONTENT FOR CELL AT ROW     5, COLUMN    10 IS LESS THAN RESIDUAL WATER CONTENT-- SETTING EXTINCTION WATER CONTENT EQUAL TO RESIDUAL WATER CONTENT

EXTINCTION WATER CONTENT FOR CELL AT ROW     6, COLUMN     1 IS LESS THAN RESIDUAL WATER CONTENT-- SETTING EXTINCTION WATER CONTENT EQUAL TO RESIDUAL WATER CONTENT

EXTINCTION WATER CONTENT FOR CELL AT ROW     6, COLUMN     2 IS LESS THAN RESIDUAL WATER CONTENT-- SETTING EXTINCTION WATER CONTENT EQUAL TO RESIDUAL WATER CONTENT

EXTINCTION WATER CONTENT FOR CELL AT ROW     6, COLUMN     3 IS LESS THAN RESIDUAL WATER CONTENT-- SETTING EXTINCTION WATER CONTENT EQUAL TO RESIDUAL WATER CONTENT

EXTINCTION WATER CONTENT FOR CELL AT ROW     6, COLUMN     4 IS LESS THAN RESIDUAL WATER CONTENT-- SETTING EXTINCTION WATER CONTENT EQUAL TO RESIDUAL WATER CONTENT

EXTINCTION WATER CONTENT FOR CELL AT ROW     6, COLUMN     5 IS LESS THAN RESIDUAL WATER CONTENT-- SETTING EXTINCTION WATER CONTENT EQUAL TO RESIDUAL WATER CONTENT

EXTINCTION WATER CONTENT FOR CELL AT ROW     6, COLUMN     6 IS LESS THAN RESIDUAL WATER CONTENT-- SETTING EXTINCTION WATER CONTENT EQUAL TO RESIDUAL WATER CONTENT

EXTINCTION WATER CONTENT FOR CELL AT ROW     6, COLUMN     7 IS LESS THAN RESIDUAL WATER CONTENT-- SETTING EXTINCTION WATER CONTENT EQUAL TO RESIDUAL WATER CONTENT

EXTINCTION WATER CONTENT FOR CELL AT ROW     6, COLUMN     8 IS LESS THAN RESIDUAL WATER CONTENT-- SETTING EXTINCTION WATER CONTENT EQUAL TO RESIDUAL WATER CONTENT

EXTINCTION WATER CONTENT FOR CELL AT ROW     6, COLUMN     9 IS LESS THAN RESIDUAL WATER CONTENT-- SETTING EXTINCTION WATER CONTENT EQUAL TO RESIDUAL WATER CONTENT

EXTINCTION WATER CONTENT FOR CELL AT ROW     6, COLUMN    10 IS LESS THAN RESIDUAL WATER CONTENT-- SETTING EXTINCTION WATER CONTENT EQUAL TO RESIDUAL WATER CONTENT

EXTINCTION WATER CONTENT FOR CELL AT ROW     7, COLUMN     1 IS LESS THAN RESIDUAL WATER CONTENT-- SETTING EXTINCTION WATER CONTENT EQUAL TO RESIDUAL WATER CONTENT

EXTINCTION WATER CONTENT FOR CELL AT ROW     7, COLUMN     2 IS LESS THAN RESIDUAL WATER CONTENT-- SETTING EXTINCTION WATER CONTENT EQUAL TO RESIDUAL WATER CONTENT

EXTINCTION WATER CONTENT FOR CELL AT ROW     7, COLUMN     3 IS LESS THAN RESIDUAL WATER CONTENT-- SETTING EXTINCTION WATER CONTENT EQUAL TO RESIDUAL WATER CONTENT

EXTINCTION WATER CONTENT FOR CELL AT ROW     7, COLUMN     4 IS LESS THAN RESIDUAL WATER CONTENT-- SETTING EXTINCTION WATER CONTENT EQUAL TO RESIDUAL WATER CONTENT

EXTINCTION WATER CONTENT FOR CELL AT ROW     7, COLUMN     5 IS LESS THAN RESIDUAL WATER CONTENT-- SETTING EXTINCTION WATER CONTENT EQUAL TO RESIDUAL WATER CONTENT

EXTINCTION WATER CONTENT FOR CELL AT ROW     7, COLUMN     6 IS LESS THAN RESIDUAL WATER CONTENT-- SETTING EXTINCTION WATER CONTENT EQUAL TO RESIDUAL WATER CONTENT

EXTINCTION WATER CONTENT FOR CELL AT ROW     7, COLUMN     7 IS LESS THAN RESIDUAL WATER CONTENT-- SETTING EXTINCTION WATER CONTENT EQUAL TO RESIDUAL WATER CONTENT

EXTINCTION WATER CONTENT FOR CELL AT ROW     7, COLUMN     8 IS LESS THAN RESIDUAL WATER CONTENT-- SETTING EXTINCTION WATER CONTENT EQUAL TO RESIDUAL WATER CONTENT

EXTINCTION WATER CONTENT FOR CELL AT ROW     7, COLUMN     9 IS LESS THAN RESIDUAL WATER CONTENT-- SETTING EXTINCTION WATER CONTENT EQUAL TO RESIDUAL WATER CONTENT

EXTINCTION WATER CONTENT FOR CELL AT ROW     8, COLUMN     2 IS LESS THAN RESIDUAL WATER CONTENT-- SETTING EXTINCTION WATER CONTENT EQUAL TO RESIDUAL WATER CONTENT

EXTINCTION WATER CONTENT FOR CELL AT ROW     8, COLUMN     3 IS LESS THAN RESIDUAL WATER CONTENT-- SETTING EXTINCTION WATER CONTENT EQUAL TO RESIDUAL WATER CONTENT

EXTINCTION WATER CONTENT FOR CELL AT ROW     8, COLUMN     4 IS LESS THAN RESIDUAL WATER CONTENT-- SETTING EXTINCTION WATER CONTENT EQUAL TO RESIDUAL WATER CONTENT

EXTINCTION WATER CONTENT FOR CELL AT ROW     8, COLUMN     5 IS LESS THAN RESIDUAL WATER CONTENT-- SETTING EXTINCTION WATER CONTENT EQUAL TO RESIDUAL WATER CONTENT

EXTINCTION WATER CONTENT FOR CELL AT ROW     8, COLUMN     6 IS LESS THAN RESIDUAL WATER CONTENT-- SETTING EXTINCTION WATER CONTENT EQUAL TO RESIDUAL WATER CONTENT

EXTINCTION WATER CONTENT FOR CELL AT ROW     8, COLUMN     7 IS LESS THAN RESIDUAL WATER CONTENT-- SETTING EXTINCTION WATER CONTENT EQUAL TO RESIDUAL WATER CONTENT

EXTINCTION WATER CONTENT FOR CELL AT ROW     8, COLUMN     8 IS LESS THAN RESIDUAL WATER CONTENT-- SETTING EXTINCTION WATER CONTENT EQUAL TO RESIDUAL WATER CONTENT

EXTINCTION WATER CONTENT FOR CELL AT ROW     8, COLUMN     9 IS LESS THAN RESIDUAL WATER CONTENT-- SETTING EXTINCTION WATER CONTENT EQUAL TO RESIDUAL WATER CONTENT

EXTINCTION WATER CONTENT FOR CELL AT ROW     9, COLUMN     2 IS LESS THAN RESIDUAL WATER CONTENT-- SETTING EXTINCTION WATER CONTENT EQUAL TO RESIDUAL WATER CONTENT

EXTINCTION WATER CONTENT FOR CELL AT ROW     9, COLUMN     3 IS LESS THAN RESIDUAL WATER CONTENT-- SETTING EXTINCTION WATER CONTENT EQUAL TO RESIDUAL WATER CONTENT

EXTINCTION WATER CONTENT FOR CELL AT ROW     9, COLUMN     4 IS LESS THAN RESIDUAL WATER CONTENT-- SETTING EXTINCTION WATER CONTENT EQUAL TO RESIDUAL WATER CONTENT

EXTINCTION WATER CONTENT FOR CELL AT ROW     9, COLUMN     5 IS LESS THAN RESIDUAL WATER CONTENT-- SETTING EXTINCTION WATER CONTENT EQUAL TO RESIDUAL WATER CONTENT

EXTINCTION WATER CONTENT FOR CELL AT ROW     9, COLUMN     6 IS LESS THAN RESIDUAL WATER CONTENT-- SETTING EXTINCTION WATER CONTENT EQUAL TO RESIDUAL WATER CONTENT

EXTINCTION WATER CONTENT FOR CELL AT ROW     9, COLUMN     7 IS LESS THAN RESIDUAL WATER CONTENT-- SETTING EXTINCTION WATER CONTENT EQUAL TO RESIDUAL WATER CONTENT

EXTINCTION WATER CONTENT FOR CELL AT ROW     9, COLUMN     8 IS LESS THAN RESIDUAL WATER CONTENT-- SETTING EXTINCTION WATER CONTENT EQUAL TO RESIDUAL WATER CONTENT

EXTINCTION WATER CONTENT FOR CELL AT ROW     9, COLUMN     9 IS LESS THAN RESIDUAL WATER CONTENT-- SETTING EXTINCTION WATER CONTENT EQUAL TO RESIDUAL WATER CONTENT

EXTINCTION WATER CONTENT FOR CELL AT ROW    10, COLUMN     2 IS LESS THAN RESIDUAL WATER CONTENT-- SETTING EXTINCTION WATER CONTENT EQUAL TO RESIDUAL WATER CONTENT

EXTINCTION WATER CONTENT FOR CELL AT ROW    10, COLUMN     3 IS LESS THAN RESIDUAL WATER CONTENT-- SETTING EXTINCTION WATER CONTENT EQUAL TO RESIDUAL WATER CONTENT

EXTINCTION WATER CONTENT FOR CELL AT ROW    10, COLUMN     4 IS LESS THAN RESIDUAL WATER CONTENT-- SETTING EXTINCTION WATER CONTENT EQUAL TO RESIDUAL WATER CONTENT

EXTINCTION WATER CONTENT FOR CELL AT ROW    10, COLUMN     5 IS LESS THAN RESIDUAL WATER CONTENT-- SETTING EXTINCTION WATER CONTENT EQUAL TO RESIDUAL WATER CONTENT

EXTINCTION WATER CONTENT FOR CELL AT ROW    10, COLUMN     6 IS LESS THAN RESIDUAL WATER CONTENT-- SETTING EXTINCTION WATER CONTENT EQUAL TO RESIDUAL WATER CONTENT

EXTINCTION WATER CONTENT FOR CELL AT ROW    10, COLUMN     7 IS LESS THAN RESIDUAL WATER CONTENT-- SETTING EXTINCTION WATER CONTENT EQUAL TO RESIDUAL WATER CONTENT

EXTINCTION WATER CONTENT FOR CELL AT ROW    10, COLUMN     8 IS LESS THAN RESIDUAL WATER CONTENT-- SETTING EXTINCTION WATER CONTENT EQUAL TO RESIDUAL WATER CONTENT

EXTINCTION WATER CONTENT FOR CELL AT ROW    10, COLUMN     9 IS LESS THAN RESIDUAL WATER CONTENT-- SETTING EXTINCTION WATER CONTENT EQUAL TO RESIDUAL WATER CONTENT

EXTINCTION WATER CONTENT FOR CELL AT ROW    10, COLUMN    10 IS LESS THAN RESIDUAL WATER CONTENT-- SETTING EXTINCTION WATER CONTENT EQUAL TO RESIDUAL WATER CONTENT

EXTINCTION WATER CONTENT FOR CELL AT ROW    11, COLUMN     2 IS LESS THAN RESIDUAL WATER CONTENT-- SETTING EXTINCTION WATER CONTENT EQUAL TO RESIDUAL WATER CONTENT

EXTINCTION WATER CONTENT FOR CELL AT ROW    11, COLUMN     3 IS LESS THAN RESIDUAL WATER CONTENT-- SETTING EXTINCTION WATER CONTENT EQUAL TO RESIDUAL WATER CONTENT

EXTINCTION WATER CONTENT FOR CELL AT ROW    11, COLUMN     4 IS LESS THAN RESIDUAL WATER CONTENT-- SETTING EXTINCTION WATER CONTENT EQUAL TO RESIDUAL WATER CONTENT

EXTINCTION WATER CONTENT FOR CELL AT ROW    11, COLUMN     5 IS LESS THAN RESIDUAL WATER CONTENT-- SETTING EXTINCTION WATER CONTENT EQUAL TO RESIDUAL WATER CONTENT

EXTINCTION WATER CONTENT FOR CELL AT ROW    11, COLUMN     6 IS LESS THAN RESIDUAL WATER CONTENT-- SETTING EXTINCTION WATER CONTENT EQUAL TO RESIDUAL WATER CONTENT

EXTINCTION WATER CONTENT FOR CELL AT ROW    11, COLUMN     7 IS LESS THAN RESIDUAL WATER CONTENT-- SETTING EXTINCTION WATER CONTENT EQUAL TO RESIDUAL WATER CONTENT

EXTINCTION WATER CONTENT FOR CELL AT ROW    11, COLUMN     8 IS LESS THAN RESIDUAL WATER CONTENT-- SETTING EXTINCTION WATER CONTENT EQUAL TO RESIDUAL WATER CONTENT

EXTINCTION WATER CONTENT FOR CELL AT ROW    11, COLUMN     9 IS LESS THAN RESIDUAL WATER CONTENT-- SETTING EXTINCTION WATER CONTENT EQUAL TO RESIDUAL WATER CONTENT

EXTINCTION WATER CONTENT FOR CELL AT ROW    12, COLUMN     1 IS LESS THAN RESIDUAL WATER CONTENT-- SETTING EXTINCTION WATER CONTENT EQUAL TO RESIDUAL WATER CONTENT

EXTINCTION WATER CONTENT FOR CELL AT ROW    12, COLUMN     2 IS LESS THAN RESIDUAL WATER CONTENT-- SETTING EXTINCTION WATER CONTENT EQUAL TO RESIDUAL WATER CONTENT

EXTINCTION WATER CONTENT FOR CELL AT ROW    12, COLUMN     3 IS LESS THAN RESIDUAL WATER CONTENT-- SETTING EXTINCTION WATER CONTENT EQUAL TO RESIDUAL WATER CONTENT

EXTINCTION WATER CONTENT FOR CELL AT ROW    12, COLUMN     4 IS LESS THAN RESIDUAL WATER CONTENT-- SETTING EXTINCTION WATER CONTENT EQUAL TO RESIDUAL WATER CONTENT

EXTINCTION WATER CONTENT FOR CELL AT ROW    12, COLUMN     5 IS LESS THAN RESIDUAL WATER CONTENT-- SETTING EXTINCTION WATER CONTENT EQUAL TO RESIDUAL WATER CONTENT

EXTINCTION WATER CONTENT FOR CELL AT ROW    12, COLUMN     6 IS LESS THAN RESIDUAL WATER CONTENT-- SETTING EXTINCTION WATER CONTENT EQUAL TO RESIDUAL WATER CONTENT

EXTINCTION WATER CONTENT FOR CELL AT ROW    12, COLUMN     7 IS LESS THAN RESIDUAL WATER CONTENT-- SETTING EXTINCTION WATER CONTENT EQUAL TO RESIDUAL WATER CONTENT

EXTINCTION WATER CONTENT FOR CELL AT ROW    12, COLUMN     8 IS LESS THAN RESIDUAL WATER CONTENT-- SETTING EXTINCTION WATER CONTENT EQUAL TO RESIDUAL WATER CONTENT

EXTINCTION WATER CONTENT FOR CELL AT ROW    12, COLUMN     9 IS LESS THAN RESIDUAL WATER CONTENT-- SETTING EXTINCTION WATER CONTENT EQUAL TO RESIDUAL WATER CONTENT

EXTINCTION WATER CONTENT FOR CELL AT ROW    13, COLUMN     1 IS LESS THAN RESIDUAL WATER CONTENT-- SETTING EXTINCTION WATER CONTENT EQUAL TO RESIDUAL WATER CONTENT

EXTINCTION WATER CONTENT FOR CELL AT ROW    13, COLUMN     2 IS LESS THAN RESIDUAL WATER CONTENT-- SETTING EXTINCTION WATER CONTENT EQUAL TO RESIDUAL WATER CONTENT

EXTINCTION WATER CONTENT FOR CELL AT ROW    13, COLUMN     3 IS LESS THAN RESIDUAL WATER CONTENT-- SETTING EXTINCTION WATER CONTENT EQUAL TO RESIDUAL WATER CONTENT

EXTINCTION WATER CONTENT FOR CELL AT ROW    13, COLUMN     4 IS LESS THAN RESIDUAL WATER CONTENT-- SETTING EXTINCTION WATER CONTENT EQUAL TO RESIDUAL WATER CONTENT

EXTINCTION WATER CONTENT FOR CELL AT ROW    13, COLUMN     5 IS LESS THAN RESIDUAL WATER CONTENT-- SETTING EXTINCTION WATER CONTENT EQUAL TO RESIDUAL WATER CONTENT

EXTINCTION WATER CONTENT FOR CELL AT ROW    13, COLUMN     6 IS LESS THAN RESIDUAL WATER CONTENT-- SETTING EXTINCTION WATER CONTENT EQUAL TO RESIDUAL WATER CONTENT

EXTINCTION WATER CONTENT FOR CELL AT ROW    13, COLUMN     7 IS LESS THAN RESIDUAL WATER CONTENT-- SETTING EXTINCTION WATER CONTENT EQUAL TO RESIDUAL WATER CONTENT

EXTINCTION WATER CONTENT FOR CELL AT ROW    13, COLUMN     8 IS LESS THAN RESIDUAL WATER CONTENT-- SETTING EXTINCTION WATER CONTENT EQUAL TO RESIDUAL WATER CONTENT

EXTINCTION WATER CONTENT FOR CELL AT ROW    13, COLUMN     9 IS LESS THAN RESIDUAL WATER CONTENT-- SETTING EXTINCTION WATER CONTENT EQUAL TO RESIDUAL WATER CONTENT

EXTINCTION WATER CONTENT FOR CELL AT ROW    14, COLUMN     2 IS LESS THAN RESIDUAL WATER CONTENT-- SETTING EXTINCTION WATER CONTENT EQUAL TO RESIDUAL WATER CONTENT

EXTINCTION WATER CONTENT FOR CELL AT ROW    14, COLUMN     3 IS LESS THAN RESIDUAL WATER CONTENT-- SETTING EXTINCTION WATER CONTENT EQUAL TO RESIDUAL WATER CONTENT

EXTINCTION WATER CONTENT FOR CELL AT ROW    14, COLUMN     4 IS LESS THAN RESIDUAL WATER CONTENT-- SETTING EXTINCTION WATER CONTENT EQUAL TO RESIDUAL WATER CONTENT

EXTINCTION WATER CONTENT FOR CELL AT ROW    14, COLUMN     5 IS LESS THAN RESIDUAL WATER CONTENT-- SETTING EXTINCTION WATER CONTENT EQUAL TO RESIDUAL WATER CONTENT

EXTINCTION WATER CONTENT FOR CELL AT ROW    14, COLUMN     6 IS LESS THAN RESIDUAL WATER CONTENT-- SETTING EXTINCTION WATER CONTENT EQUAL TO RESIDUAL WATER CONTENT

EXTINCTION WATER CONTENT FOR CELL AT ROW    14, COLUMN     7 IS LESS THAN RESIDUAL WATER CONTENT-- SETTING EXTINCTION WATER CONTENT EQUAL TO RESIDUAL WATER CONTENT

EXTINCTION WATER CONTENT FOR CELL AT ROW    14, COLUMN     8 IS LESS THAN RESIDUAL WATER CONTENT-- SETTING EXTINCTION WATER CONTENT EQUAL TO RESIDUAL WATER CONTENT

EXTINCTION WATER CONTENT FOR CELL AT ROW    14, COLUMN     9 IS LESS THAN RESIDUAL WATER CONTENT-- SETTING EXTINCTION WATER CONTENT EQUAL TO RESIDUAL WATER CONTENT

EXTINCTION WATER CONTENT FOR CELL AT ROW    15, COLUMN     3 IS LESS THAN RESIDUAL WATER CONTENT-- SETTING EXTINCTION WATER CONTENT EQUAL TO RESIDUAL WATER CONTENT

EXTINCTION WATER CONTENT FOR CELL AT ROW    15, COLUMN     4 IS LESS THAN RESIDUAL WATER CONTENT-- SETTING EXTINCTION WATER CONTENT EQUAL TO RESIDUAL WATER CONTENT

EXTINCTION WATER CONTENT FOR CELL AT ROW    15, COLUMN     5 IS LESS THAN RESIDUAL WATER CONTENT-- SETTING EXTINCTION WATER CONTENT EQUAL TO RESIDUAL WATER CONTENT

EXTINCTION WATER CONTENT FOR CELL AT ROW    15, COLUMN     6 IS LESS THAN RESIDUAL WATER CONTENT-- SETTING EXTINCTION WATER CONTENT EQUAL TO RESIDUAL WATER CONTENT
 
 SOLVING FOR HEAD 
                                                   Max.-Head-Change                         Max.-Flux-Residual
  Residual-Control   Outer-Iter.   Inner-Iter.     Column Row Layer    Maximum-Head-Change  Column Row Layer    Maximum-Flux-Residual          L2-NORM 
          0                 1           4             1    1     1      -0.5215033375E+02       3    3    1        -0.3473569614E+01      0.9635409413E+01
          0                 2           4             7    3     1      -0.3074249260E+02       1   13    1        -0.2458982963E+02      0.2595370052E+02
          0                 3           5             4   13     1      -0.3958135951E+01       4   13    1        -0.3669196396E+01      0.3747381929E+01
          0                 4           5             3   13     1      -0.1502002753E+01       3   13    1        -0.1250437021E+01      0.1382576736E+01
          0                 5           4             3   13     1       0.1246693805E+00       3   13    1         0.1000280379E+00      0.1207648746E+00
          0                 6           4             3   13     1      -0.9759685854E-02       3   13    1        -0.7478877239E-02      0.1035564025E-01
          0                 7           3             3   12     1       0.7336134211E-03       4   13    1        -0.5582661545E-03      0.8116356007E-03
          0                 8           1             3   12     1      -0.4391031827E-04       4   13    1         0.4222703092E-04      0.5739267093E-04
          0                 9           1             1    7     1      -0.7599612689E-05       4   13    1        -0.2617723453E-05      0.3291290449E-05

    ------------------------------------------------
       NWT REQUIRED            9 OUTER ITERATIONS 
       AND A TOTAL OF         31 INNER ITERATIONS.
    ------------------------------------------------

 OUTPUT CONTROL FOR STRESS PERIOD    1   TIME STEP    1
    PRINT BUDGET
    SAVE BUDGET
 UBUDSV SAVING "   CONSTANT HEAD" ON UNIT102 AT TIME STEP     1, STRESS PERIOD    1
 UBUDSV SAVING "FLOW RIGHT FACE " ON UNIT102 AT TIME STEP     1, STRESS PERIOD    1
 UBUDSV SAVING "FLOW FRONT FACE " ON UNIT102 AT TIME STEP     1, STRESS PERIOD    1

  HEAD DEP BOUNDS   PERIOD    1   STEP     1
 BOUNDARY      1   LAYER   1   ROW    13   COL     1   RATE   -0.279117    
 BOUNDARY      2   LAYER   1   ROW    14   COL     9   RATE     1.06963    



 STREAM LISTING     PERIOD      1   STEP        1

 LAYER ROW COL. STREAM  RCH.  FLOW INTO     FLOW TO   FLOW OUT OF   OVRLND.     DIRECT     STREAM       STREAM     STREAM     STREAM   STREAMBED  STREAMBED
                SEG.NO.  NO.  STRM. RCH.    AQUIFER    STRM. RCH.    RUNOFF     PRECIP       ET          HEAD       DEPTH      WIDTH   CONDCTNC.   GRADIENT

   1    1    1     1     1    0.0000E+00  0.0000E+00   0.0000E+00  0.000E+00  0.000E+00  0.000E+00  1.09305E+03  0.000E+00  1.400E+01  6.300E-02  1.000E+00
   1    2    2     1     2    0.0000E+00  0.0000E+00   0.0000E+00  0.000E+00  0.000E+00  0.000E+00  1.08806E+03  0.000E+00  1.400E+01  9.800E-02  1.000E+00
   1    3    3     1     3    0.0000E+00  0.0000E+00   0.0000E+00  0.000E+00  0.000E+00  0.000E+00  1.08242E+03  0.000E+00  1.400E+01  8.400E-02  1.000E+00
   1    3    4     1     4    0.0000E+00  0.0000E+00   0.0000E+00  0.000E+00  0.000E+00  0.000E+00  1.07741E+03  0.000E+00  1.400E+01  7.770E-02  1.000E+00
   1    4    5     2     1    0.0000E+00  0.0000E+00   0.0000E+00  0.000E+00  0.000E+00  0.000E+00  1.07193E+03  0.000E+00  1.200E+01  7.800E-02  1.000E+00
   1    5    6     2     2    0.0000E+00  0.0000E+00   0.0000E+00  0.000E+00  0.000E+00  0.000E+00  1.06651E+03  0.000E+00  1.200E+01  6.000E-02  1.000E+00
   1    6    6     2     3    0.0000E+00  0.0000E+00   0.0000E+00  0.000E+00  0.000E+00  0.000E+00  1.06179E+03  0.000E+00  1.200E+01  6.000E-02  1.000E+00
   1    7    6     2     4    0.0000E+00  0.0000E+00   0.0000E+00  0.000E+00  0.000E+00  0.000E+00  1.05708E+03  0.000E+00  1.200E+01  6.000E-02  1.000E+00
   1    8    6     2     5    0.0000E+00  0.0000E+00   0.0000E+00  0.000E+00  0.000E+00  0.000E+00  1.05236E+03  0.000E+00  1.200E+01  6.000E-02  1.000E+00
   1    3    5     3     1    0.0000E+00  0.0000E+00   0.0000E+00  0.000E+00  0.000E+00  0.000E+00  1.07364E+03  0.000E+00  9.636E+00  7.227E-02  1.000E+00
   1    3    6     3     2    0.0000E+00  0.0000E+00   0.0000E+00  0.000E+00  0.000E+00  0.000E+00  1.07091E+03  0.000E+00  8.909E+00  6.682E-02  1.000E+00
   1    3    7     3     3    0.0000E+00  0.0000E+00   0.0000E+00  0.000E+00  0.000E+00  0.000E+00  1.06832E+03  0.000E+00  8.218E+00  5.547E-02  1.000E+00
   1    4    8     3     4    0.0000E+00  0.0000E+00   0.0000E+00  0.000E+00  0.000E+00  0.000E+00  1.06545E+03  0.000E+00  7.455E+00  6.709E-02  1.000E+00
   1    5    8     3     5    0.0000E+00  0.0000E+00   0.0000E+00  0.000E+00  0.000E+00  0.000E+00  1.06245E+03  0.000E+00  6.655E+00  4.991E-02  1.000E+00
   1    6    8     3     6    0.0000E+00  0.0000E+00   0.0000E+00  0.000E+00  0.000E+00  0.000E+00  1.06055E+03  0.000E+00  6.145E+00  1.844E-02  1.000E+00
   1    5   10     4     1    1.0000E+01  9.0919E-02   9.9091E+00  0.000E+00  0.000E+00  0.000E+00  1.07836E+03  6.368E-01  1.000E+01  2.500E-02  1.212E+00
   1    5    9     4     2    9.9091E+00  1.8158E-01   9.7275E+00  0.000E+00  0.000E+00  0.000E+00  1.07154E+03  6.315E-01  1.000E+01  5.000E-02  1.211E+00
   1    6    8     4     3    9.7275E+00  1.2689E-01   9.6006E+00  0.000E+00  0.000E+00  0.000E+00  1.06381E+03  6.256E-01  1.000E+01  3.500E-02  1.209E+00
   1    6    8     5     1    9.6006E+00  2.1464E-09   9.6006E+00  0.000E+00  0.000E+00  0.000E+00  1.05866E+03  6.595E-01  1.466E+01  5.865E-10  1.220E+00
[...]
  Residual-Control   Outer-Iter.   Inner-Iter.     Column Row Layer    Maximum-Head-Change  Column Row Layer    Maximum-Flux-Residual          L2-NORM 
          0                 1           2             7    5     1       0.5941141947E-02       7    5    1         0.3098533482E+00      0.1679457551E+01
          0                 2           2             8    2     1       0.2232455740E-02       8    6    1         0.6051308341E-01      0.3773558050E+00
          0                 3           2             8    2     1       0.1003439588E-02       8    2    1         0.2605834938E-01      0.1285431077E+00
          0                 4           2             8    2     1       0.4510236989E-03       8    2    1         0.1171265212E-01      0.5427452212E-01
          0                 5           2             8    2     1       0.2027249709E-03       8    2    1         0.5264575238E-02      0.2404177877E-01
          0                 6           1             8    2     1       0.9112024546E-04       8    2    1         0.2366307496E-02      0.1073725002E-01
          0                 7           1             8    2     1       0.4095644568E-04       8    2    1         0.1063601080E-02      0.4802456004E-02
          0                 8           1             8    2     1       0.1840896539E-04       8    2    1         0.4780640677E-03      0.2148836142E-02
          0                 9           1             8    2     1       0.8274394759E-05       8    2    1         0.2148786025E-03      0.9616816719E-03

    ------------------------------------------------
       NWT REQUIRED            9 OUTER ITERATIONS 
       AND A TOTAL OF         14 INNER ITERATIONS.
    ------------------------------------------------

 NO OUTPUT CONTROL FOR STRESS PERIOD   25   TIME STEP   26
 
 SOLVING FOR HEAD 
                                                   Max.-Head-Change                         Max.-Flux-Residual
  Residual-Control   Outer-Iter.   Inner-Iter.     Column Row Layer    Maximum-Head-Change  Column Row Layer    Maximum-Flux-Residual          L2-NORM 
          0                 1           2             7    5     1       0.5926043204E-02       7    5    1         0.3090553398E+00      0.1677727285E+01
          0                 2           2             8    2     1       0.2231331378E-02       8    6    1         0.6040584578E-01      0.3771461280E+00
          0                 3           2             8    2     1       0.1002934275E-02       8    2    1         0.2604522554E-01      0.1285113958E+00
          0                 4           2             8    2     1       0.4507966017E-03       8    2    1         0.1170675398E-01      0.5426470121E-01
          0                 5           2             8    2     1       0.2026229102E-03       8    2    1         0.5261924513E-02      0.2403740857E-01
          0                 6           1             8    2     1       0.9107437810E-04       8    2    1         0.2365116219E-02      0.1073518183E-01
          0                 7           1             8    2     1       0.4093583241E-04       8    2    1         0.1063065704E-02      0.4801475941E-02
          0                 8           1             8    2     1       0.1839970153E-04       8    2    1         0.4778234646E-03      0.2148573452E-02
          0                 9           1             8    2     1       0.8270231535E-05       8    2    1         0.2147704759E-03      0.9619570583E-03

    ------------------------------------------------
       NWT REQUIRED            9 OUTER ITERATIONS 
       AND A TOTAL OF         14 INNER ITERATIONS.
    ------------------------------------------------

 NO OUTPUT CONTROL FOR STRESS PERIOD   25   TIME STEP   27
 
 SOLVING FOR HEAD 
                                                   Max.-Head-Change                         Max.-Flux-Residual
  Residual-Control   Outer-Iter.   Inner-Iter.     Column Row Layer    Maximum-Head-Change  Column Row Layer    Maximum-Flux-Residual          L2-NORM 
          0                 1           2             7    5     1       0.5911297458E-02       7    5    1         0.3082761598E+00      0.1676702580E+01
          0                 2           2             8    2     1       0.2230230502E-02       8    6    1         0.6030130588E-01      0.3769834778E+00
          0                 3           2             8    2     1       0.1002439506E-02       8    2    1         0.2603237579E-01      0.1284646299E+00
          0                 4           2             8    2     1       0.4505742384E-03       8    2    1         0.1170097891E-01      0.5424519440E-01
          0                 5           2             8    2     1       0.2025229746E-03       8    2    1         0.5259329033E-02      0.2402852459E-01
          0                 6           1             8    2     1       0.9102946491E-04       8    2    1         0.2363949747E-02      0.1073109142E-01
          0                 7           1             8    2     1       0.4091564782E-04       8    2    1         0.1062541468E-02      0.4799597654E-02
          0                 8           1             8    2     1       0.1839063000E-04       8    2    1         0.4775878607E-03      0.2147517824E-02
          0                 9           1             8    2     1       0.8266154725E-05       8    2    1         0.2146645932E-03      0.9610683664E-03

    ------------------------------------------------
       NWT REQUIRED            9 OUTER ITERATIONS 
       AND A TOTAL OF         14 INNER ITERATIONS.
    ------------------------------------------------

 NO OUTPUT CONTROL FOR STRESS PERIOD   25   TIME STEP   28
 
 SOLVING FOR HEAD 
                                                   Max.-Head-Change                         Max.-Flux-Residual
  Residual-Control   Outer-Iter.   Inner-Iter.     Column Row Layer    Maximum-Head-Change  Column Row Layer    Maximum-Flux-Residual          L2-NORM 
          0                 1           2             7    5     1       0.5896772989E-02       7    5    1         0.3075087782E+00      0.1675691927E+01
          0                 2           2             8    2     1       0.2229132204E-02       8    6    1         0.6019736028E-01      0.3768193239E+00
          0                 3           2             8    2     1       0.1001945882E-02       8    2    1         0.2601955606E-01      0.1284170957E+00
          0                 4           2             8    2     1       0.4503523836E-03       8    2    1         0.1169521716E-01      0.5422615117E-01
          0                 5           2             8    2     1       0.2024232645E-03       8    2    1         0.5256739465E-02      0.2402025389E-01
          0                 6           1             8    2     1       0.9098465164E-04       8    2    1         0.2362785898E-02      0.1072743751E-01
          0                 7           1             8    2     1       0.4089550725E-04       8    2    1         0.1062018395E-02      0.4797975102E-02
          0                 8           1             8    2     1       0.1838157836E-04       8    2    1         0.4773527770E-03      0.2146796837E-02
          0                 9           1             8    2     1       0.8262086794E-05       8    2    1         0.2145589400E-03      0.9607549236E-03

    ------------------------------------------------
       NWT REQUIRED            9 OUTER ITERATIONS 
       AND A TOTAL OF         14 INNER ITERATIONS.
    ------------------------------------------------

 NO OUTPUT CONTROL FOR STRESS PERIOD   25   TIME STEP   29
 
 SOLVING FOR HEAD 
                                                   Max.-Head-Change                         Max.-Flux-Residual
  Residual-Control   Outer-Iter.   Inner-Iter.     Column Row Layer    Maximum-Head-Change  Column Row Layer    Maximum-Flux-Residual          L2-NORM 
          0                 1           2             7    5     1       0.5882581126E-02       7    5    1         0.3067591195E+00      0.1674821520E+01
          0                 2           2             8    2     1       0.2228015804E-02       8    6    1         0.6009496362E-01      0.3766873400E+00
          0                 3           2             8    2     1       0.1001444155E-02       8    2    1         0.2600652520E-01      0.1283804288E+00
          0                 4           2             8    2     1       0.4501269013E-03       8    2    1         0.1168936090E-01      0.5421120638E-01
          0                 5           2             8    2     1       0.2023219310E-03       8    2    1         0.5254107596E-02      0.2401353412E-01
          0                 6           1             8    2     1       0.9093911179E-04       8    2    1         0.2361603114E-02      0.1072435436E-01
          0                 7           1             8    2     1       0.4087504117E-04       8    2    1         0.1061486843E-02      0.4796555389E-02
          0                 8           1             8    2     1       0.1837238115E-04       8    2    1         0.4771138994E-03      0.2146140927E-02
          0                 9           1             8    2     1       0.8257953459E-05       8    2    1         0.2144515870E-03      0.9604463493E-03

    ------------------------------------------------
       NWT REQUIRED            9 OUTER ITERATIONS 
       AND A TOTAL OF         14 INNER ITERATIONS.
    ------------------------------------------------

 NO OUTPUT CONTROL FOR STRESS PERIOD   25   TIME STEP   30



 STREAM LISTING     PERIOD     25   STEP       30

 LAYER ROW COL. STREAM  RCH.  FLOW INTO     FLOW TO   FLOW OUT OF   OVRLND.     DIRECT     STREAM       STREAM     STREAM     STREAM   STREAMBED  STREAMBED
                SEG.NO.  NO.  STRM. RCH.    AQUIFER    STRM. RCH.    RUNOFF     PRECIP       ET          HEAD       DEPTH      WIDTH   CONDCTNC.   GRADIENT

   1    1    1     1     1    3.5000E+00  8.3255E-10   3.5000E+00  0.000E+00  0.000E+00  0.000E+00  1.09371E+03  6.654E-01  5.047E+00  2.271E-10  1.222E+00
   1    2    2     1     2    3.5000E+00  1.2916E-09   3.5000E+00  0.000E+00  0.000E+00  0.000E+00  1.08872E+03  6.639E-01  5.036E+00  3.525E-10  1.221E+00
   1    3    3     1     3    3.5000E+00  1.1083E-09   3.5000E+00  0.000E+00  0.000E+00  0.000E+00  1.08308E+03  6.645E-01  5.041E+00  3.024E-10  1.222E+00
   1    3    4     1     4    3.5000E+00  1.0257E-09   3.5000E+00  0.000E+00  0.000E+00  0.000E+00  1.07807E+03  6.648E-01  5.043E+00  2.799E-10  1.222E+00
   1    4    5     2     1    1.5000E+00  2.5053E-01   1.2495E+00  0.000E+00  0.000E+00  0.000E+00  1.07215E+03  2.119E-01  1.200E+01  7.800E-02  1.071E+00
   1    5    6     2     2    1.2495E+00  1.9144E-01   1.0580E+00  0.000E+00  0.000E+00  0.000E+00  1.06670E+03  1.907E-01  1.200E+01  6.000E-02  1.064E+00
   1    6    6     2     3    1.0580E+00  1.9027E-01   8.6776E-01  0.000E+00  0.000E+00  0.000E+00  1.06196E+03  1.711E-01  1.200E+01  6.000E-02  1.057E+00
   1    7    6     2     4    8.6776E-01  1.8900E-01   6.7876E-01  0.000E+00  0.000E+00  0.000E+00  1.05723E+03  1.500E-01  1.200E+01  6.000E-02  1.050E+00
   1    8    6     2     5    6.7876E-01  1.8761E-01   4.9115E-01  0.000E+00  0.000E+00  0.000E+00  1.05249E+03  1.269E-01  1.200E+01  6.000E-02  1.042E+00
   1    3    5     3     1    2.0000E+00  2.8252E-01   1.7175E+00  0.000E+00  0.000E+00  0.000E+00  1.07555E+03  1.909E+00  9.636E+00  7.227E-02  1.955E+00
   1    3    6     3     2    1.7175E+00  2.4905E-01   1.4684E+00  0.000E+00  0.000E+00  0.000E+00  1.07264E+03  1.727E+00  8.909E+00  6.682E-02  1.864E+00
   1    3    7     3     3    1.4684E+00  1.9718E-01   1.2712E+00  0.000E+00  0.000E+00  0.000E+00  1.06987E+03  1.555E+00  8.218E+00  5.547E-02  1.777E+00
   1    4    8     3     4    1.2712E+00  2.2567E-01   1.0456E+00  0.000E+00  0.000E+00  0.000E+00  1.06682E+03  1.364E+00  7.455E+00  6.709E-02  1.682E+00
   1    5    8     3     5    1.0456E+00  1.5790E-01   8.8768E-01  0.000E+00  0.000E+00  0.000E+00  1.06362E+03  1.164E+00  6.655E+00  4.991E-02  1.582E+00
   1    6    8     3     6    8.8768E-01  5.5980E-02   8.3170E-01  0.000E+00  0.000E+00  0.000E+00  1.06158E+03  1.036E+00  6.145E+00  1.844E-02  1.518E+00
   1    5   10     4     1    1.0000E+01  9.0919E-02   9.9091E+00  0.000E+00  0.000E+00  0.000E+00  1.07836E+03  6.368E-01  1.000E+01  2.500E-02  1.212E+00
   1    5    9     4     2    9.9091E+00  1.8158E-01   9.7275E+00  0.000E+00  0.000E+00  0.000E+00  1.07154E+03  6.315E-01  1.000E+01  5.000E-02  1.211E+00
   1    6    8     4     3    9.7275E+00  1.2689E-01   9.6006E+00  0.000E+00  0.000E+00  0.000E+00  1.06381E+03  6.256E-01  1.000E+01  3.500E-02  1.209E+00
   1    6    8     5     1    1.0432E+01  2.2686E-09   1.0432E+01  0.000E+00  0.000E+00  0.000E+00  1.05868E+03  6.790E-01  1.542E+01  6.166E-10  1.226E+00
   1    7    7     5     2    1.0432E+01  2.8306E-09   1.0432E+01  0.000E+00  0.000E+00  0.000E+00  1.05418E+03  6.784E-01  1.539E+01  7.695E-10  1.226E+00
   1    8    7     5     3    1.0432E+01  1.9868E-09   1.0432E+01  0.000E+00  0.000E+00  0.000E+00  1.04993E+03  6.794E-01  1.543E+01  5.400E-10  1.226E+00
   1    8    6     5     4    1.0432E+01  1.4217E-09   1.0432E+01  0.000E+00  0.000E+00  0.000E+00  1.04693E+03  6.800E-01  1.545E+01  3.863E-10  1.227E+00
   1    9    6     6     1    1.0923E+01  2.2430E-01   1.0699E+01  0.000E+00  0.000E+00  0.000E+00  1.04347E+03  7.384E-01  1.200E+01  6.000E-02  1.246E+00
   1   10    7     6     2    1.0699E+01  2.2375E-01   1.0475E+01  0.000E+00  0.000E+00  0.000E+00  1.03891E+03  7.292E-01  1.200E+01  6.000E-02  1.243E+00
   1   11    7     6     3    1.0475E+01  2.2320E-01   1.0252E+01  0.000E+00  0.000E+00  0.000E+00  1.03436E+03  7.199E-01  1.200E+01  6.000E-02  1.240E+00
   1   12    7     6     4    1.0252E+01  2.2264E-01   1.0030E+01  0.000E+00  0.000E+00  0.000E+00  1.02980E+03  7.106E-01  1.200E+01  6.000E-02  1.237E+00
   1   13    7     6     5    1.0030E+01  8.8896E-02   9.9407E+00  0.000E+00  0.000E+00  0.000E+00  1.02661E+03  7.040E-01  1.200E+01  2.400E-02  1.235E+00
   1   14    9     7     1    1.5000E+02  2.9539E-08   1.5000E+02  0.000E+00  0.000E+00  0.000E+00  1.03986E+03  2.283E+00  5.528E+01  5.591E-09  1.761E+00
   1   13    8     7     2    1.5000E+02  3.2486E-14   1.5000E+02  0.000E+00  0.000E+00  0.000E+00  1.03478E+03  2.283E+00  5.527E+01  6.150E-15  1.761E+00
   1   13    7     7     3    1.5000E+02  2.9539E-08   1.5000E+02  0.000E+00  0.000E+00  0.000E+00  1.02970E+03  2.283E+00  5.528E+01  5.591E-09  1.761E+00
   1   13    6     8     1    1.5994E+02  2.4983E-13   1.5994E+02  0.000E+00  0.000E+00  0.000E+00  1.02475E+03  2.877E+00  4.172E+01  4.251E-14  1.959E+00
   1   13    5     8     2    1.5994E+02  2.4983E-14   1.5994E+02  0.000E+00  0.000E+00  0.000E+00  1.01850E+03  2.877E+00  4.172E+01  4.251E-15  1.959E+00
   1   13    4     8     3    1.5994E+02  1.4486E-09   1.5994E+02  0.000E+00  0.000E+00  0.000E+00  1.01226E+03  2.881E+00  4.177E+01  4.256E-10  1.134E+00
   1   13    3     8     4    1.5994E+02  2.6957E-08   1.5994E+02  0.000E+00  0.000E+00  0.000E+00  1.00601E+03  2.885E+00  4.184E+01  4.263E-07  2.108E-02
   1   13    2     8     5    1.5994E+02 -1.9022E+00   1.6184E+02  0.000E+00  0.000E+00  0.000E+00  9.99767E+02  2.892E+00  4.193E+01  4.273E+00 -1.484E-01
   1   13    1     8     6    1.6184E+02 -1.8627E+00   1.6371E+02  0.000E+00  0.000E+00  0.000E+00  9.94779E+02  2.905E+00  4.212E+01  2.575E+00 -2.411E-01
   1    6    8     9     1    0.0000E+00  0.0000E+00   0.0000E+00  0.000E+00  0.000E+00  0.000E+00  1.07850E+03  0.000E+00  4.000E+00  0.000E+00  1.000E+00





UNSATURATED ZONE PACKAGE VOLUMETRIC BUDGET FOR  TIME STEP    30 STRESS PERIOD   25
  ------------------------------------------------------------------------------



     CUMULATIVE VOLUMES      L**3       RATES FOR THIS TIME STEP      L**3/T
     ------------------                 ------------------------

           IN:                                      IN:
           ---                                      ---
        INFILTRATION =   137626364.6154          INFILTRATION =           0.8475

          OUT:                                     OUT:
          ----                                     ----
              UZF ET =   618712839.9030                UZF ET =           0.0111
        UZF RECHARGE =  1621078529.4510          UZF RECHARGE =          22.6538

            IN - OUT = -2102165004.7385              IN - OUT =         -21.8173

          STORAGE:                                 STORAGE:
          --------                                 --------
      STORAGE CHANGE = -2102139273.1202        STORAGE CHANGE =         -21.8173

 PERCENT DISCREPANCY IS DIFFERENCE BETWEEN IN-OUT MINUS CHANGE IN STORAGE
 DIVIDED BY THE AVERAGE OF IN AND OUT TIMES 100

 PERCENT DISCREPANCY =          -0.00     PERCENT DISCREPANCY =           0.00






1
  VOLUMETRIC BUDGET FOR ENTIRE MODEL AT END OF TIME STEP   30, STRESS PERIOD  25
  ------------------------------------------------------------------------------

     CUMULATIVE VOLUMES      L**3       RATES FOR THIS TIME STEP      L**3/T
     ------------------                 ------------------------

           IN:                                      IN:
           ---                                      ---
             STORAGE =    48653724.0000               STORAGE =       9.7768E-03
       CONSTANT HEAD =           0.0000         CONSTANT HEAD =           0.0000
               WELLS =           0.0000                 WELLS =           0.0000
     HEAD DEP BOUNDS =    66862848.0000       HEAD DEP BOUNDS =           0.9686
      STREAM LEAKAGE =   256445824.0000        STREAM LEAKAGE =           3.5593
        UZF RECHARGE =  1621077760.0000          UZF RECHARGE =          22.6538
               GW ET =           0.0000                 GW ET =           0.0000
     SURFACE LEAKAGE =           0.0000       SURFACE LEAKAGE =           0.0000

            TOTAL IN =  1993040128.0000              TOTAL IN =          27.1915

          OUT:                                     OUT:
          ----                                     ----
             STORAGE =  1712359040.0000               STORAGE =          23.1291
       CONSTANT HEAD =           0.0000         CONSTANT HEAD =           0.0000
               WELLS =    16979570.0000                 WELLS =           0.0000
     HEAD DEP BOUNDS =    18599502.0000       HEAD DEP BOUNDS =           0.2851
      STREAM LEAKAGE =   165085984.0000        STREAM LEAKAGE =           3.7649
        UZF RECHARGE =           0.0000          UZF RECHARGE =           0.0000
               GW ET =    79815064.0000                 GW ET =       9.3580E-03
     SURFACE LEAKAGE =           0.0000       SURFACE LEAKAGE =           0.0000

           TOTAL OUT =  1992839168.0000             TOTAL OUT =          27.1885

            IN - OUT =      200960.0000              IN - OUT =       3.0003E-03

 PERCENT DISCREPANCY =           0.01     PERCENT DISCREPANCY =           0.01






         TIME SUMMARY AT END OF TIME STEP   30 IN STRESS PERIOD   25
                    SECONDS     MINUTES      HOURS       DAYS        YEARS
                    -----------------------------------------------------------
   TIME STEP LENGTH  87600.      1460.0      24.333      1.0139     2.77588E-03
 STRESS PERIOD TIME 2.62800E+06  43800.      730.00      30.417     8.32763E-02
         TOTAL TIME 6.57000E+07 1.09500E+06  18250.      760.42      2.0819    
1

 Run end date and time (yyyy/mm/dd hh:mm:ss): 2017/08/03 13:15:02
 Elapsed run time: 23.762 Seconds

