                                  MODFLOW-NWT-SWR1 
      U.S. GEOLOGICAL SURVEY MODULAR FINITE-DIFFERENCE GROUNDWATER-FLOW MODEL
                            VERSION 1.1.3, 8/01/2017
                    BASED ON MODFLOW-2005 VERSION 1.11.00 08/08/2013

 LIST FILE: wellsuppirr.lst
                         UNIT    9

 OPENING wellsuppirr.ba6
 FILE TYPE:BAS6   UNIT   75   STATUS:OLD    
 FORMAT:FORMATTED              ACCESS:SEQUENTIAL          

 OPENING wellsuppirr.upw
 FILE TYPE:UPW   UNIT    7   STATUS:OLD    
 FORMAT:FORMATTED              ACCESS:SEQUENTIAL          

 OPENING wellsuppirr.dis
 FILE TYPE:DIS   UNIT    8   STATUS:OLD    
 FORMAT:FORMATTED              ACCESS:SEQUENTIAL          

 OPENING wellsuppirr.nwt
 FILE TYPE:NWT   UNIT   13   STATUS:OLD    
 FORMAT:FORMATTED              ACCESS:SEQUENTIAL          

 OPENING wellsuppirr.oc
 FILE TYPE:OC   UNIT   14   STATUS:OLD    
 FORMAT:FORMATTED              ACCESS:SEQUENTIAL          

 OPENING wellsuppirr.sfr
 FILE TYPE:SFR   UNIT   15   STATUS:OLD    
 FORMAT:FORMATTED              ACCESS:SEQUENTIAL          

 OPENING wellsuppirr.wel
 FILE TYPE:WEL   UNIT   16   STATUS:OLD    
 FORMAT:FORMATTED              ACCESS:SEQUENTIAL          

 OPENING wellsuppirr.ghb
 FILE TYPE:GHB   UNIT   17   STATUS:OLD    
 FORMAT:FORMATTED              ACCESS:SEQUENTIAL          

 OPENING wellsuppirr.uzf
 FILE TYPE:UZF   UNIT   19   STATUS:OLD    
 FORMAT:FORMATTED              ACCESS:SEQUENTIAL          

 OPENING wellsuppirr.gag
 FILE TYPE:GAGE   UNIT   32   STATUS:OLD    
 FORMAT:FORMATTED              ACCESS:SEQUENTIAL          

 OPENING seg1.tab
 FILE TYPE:DATA   UNIT   55   STATUS:UNKNOWN
 FORMAT:FORMATTED              ACCESS:SEQUENTIAL          

 OPENING seg9.tab
 FILE TYPE:DATA   UNIT   56   STATUS:UNKNOWN
 FORMAT:FORMATTED              ACCESS:SEQUENTIAL          

 OPENING wellsuppirr.ago
 FILE TYPE:AGO   UNIT   57   STATUS:OLD    
 FORMAT:FORMATTED              ACCESS:SEQUENTIAL          

 OPENING wellsuppirr.sup
 FILE TYPE:DATA   UNIT   60   STATUS:UNKNOWN
 FORMAT:FORMATTED              ACCESS:SEQUENTIAL          

 OPENING wellsuppirr.hed
 FILE TYPE:DATA   UNIT   62   STATUS:UNKNOWN
 FORMAT:FORMATTED              ACCESS:SEQUENTIAL          

 OPENING wellsuppirr.uzfot
 FILE TYPE:DATA(BINARY)   UNIT   61   STATUS:UNKNOWN
 FORMAT:BINARY                 ACCESS:SEQUENTIAL          

 OPENING netfluxin.unf
 FILE TYPE:DATA(BINARY)   UNIT  100   STATUS:UNKNOWN
 FORMAT:BINARY                 ACCESS:SEQUENTIAL          

 OPENING netfluxout.unf
 FILE TYPE:DATA(BINARY)   UNIT  101   STATUS:UNKNOWN
 FORMAT:BINARY                 ACCESS:SEQUENTIAL          

 OPENING cbc.unf
 FILE TYPE:DATA(BINARY)   UNIT  102   STATUS:UNKNOWN
 FORMAT:BINARY                 ACCESS:SEQUENTIAL          

 OPENING wellsuppirr.uzf1
 FILE TYPE:DATA   UNIT   65   STATUS:UNKNOWN
 FORMAT:FORMATTED              ACCESS:SEQUENTIAL          

 OPENING wellsuppirr.uzf2
 FILE TYPE:DATA   UNIT   66   STATUS:UNKNOWN
 FORMAT:FORMATTED              ACCESS:SEQUENTIAL          

 OPENING wellsuppirr.uzf3
 FILE TYPE:DATA   UNIT   67   STATUS:UNKNOWN
 FORMAT:FORMATTED              ACCESS:SEQUENTIAL          

 OPENING wellsuppirr.uzf4
 FILE TYPE:DATA   UNIT   68   STATUS:UNKNOWN
 FORMAT:FORMATTED              ACCESS:SEQUENTIAL          

 OPENING wellsuppirr.flw
 FILE TYPE:DATA   UNIT   81   STATUS:UNKNOWN
 FORMAT:FORMATTED              ACCESS:SEQUENTIAL          

 OPENING wellsuppirr.sg1
 FILE TYPE:DATA   UNIT   83   STATUS:UNKNOWN
 FORMAT:FORMATTED              ACCESS:SEQUENTIAL          

 OPENING wellsuppirr.sg2
 FILE TYPE:DATA   UNIT   84   STATUS:UNKNOWN
 FORMAT:FORMATTED              ACCESS:SEQUENTIAL          

 OPENING wellsuppirr.sg3
 FILE TYPE:DATA   UNIT   85   STATUS:UNKNOWN
 FORMAT:FORMATTED              ACCESS:SEQUENTIAL          

 OPENING wellsuppirr.sg4
 FILE TYPE:DATA   UNIT   86   STATUS:UNKNOWN
 FORMAT:FORMATTED              ACCESS:SEQUENTIAL          

 OPENING wellsuppirr.sg5
 FILE TYPE:DATA   UNIT   87   STATUS:UNKNOWN
 FORMAT:FORMATTED              ACCESS:SEQUENTIAL          

 OPENING wellsuppirr.sg6
 FILE TYPE:DATA   UNIT   88   STATUS:UNKNOWN
 FORMAT:FORMATTED              ACCESS:SEQUENTIAL          

 OPENING wellsuppirr.sg7
 FILE TYPE:DATA   UNIT   89   STATUS:UNKNOWN
 FORMAT:FORMATTED              ACCESS:SEQUENTIAL          

 OPENING wellsuppirr.sg8
 FILE TYPE:DATA   UNIT   90   STATUS:UNKNOWN
 FORMAT:FORMATTED              ACCESS:SEQUENTIAL          

 OPENING wellsuppirr.sg9
 FILE TYPE:DATA   UNIT   91   STATUS:UNKNOWN
 FORMAT:FORMATTED              ACCESS:SEQUENTIAL          

 BAS -- BASIC PACKAGE, VERSION 1.1.3, 8/01/2017 INPUT READ FROM UNIT   75
 
 MODFLOW was compiled using mixed precision
 Precision of REAL variables:           6
 Precision of DOUBLE PRECISION variables:          15

 DISCRETIZATION INPUT DATA READ FROM UNIT    8
 #Test problem 2-- Discretization input
 #Example problem using the UZF1 Package
    1 LAYERS        15 ROWS        10 COLUMNS
   25 STRESS PERIOD(S) IN SIMULATION
 MODEL TIME UNIT IS SECONDS
 MODEL LENGTH UNIT IS FEET
  Confining bed flag for each layer:
   0

                     DELR =   5000.00    

                     DELC =   5000.00    



           TOP ELEVATION OF LAYER 1
 READING ON UNIT    8 WITH FORMAT: (10F7.0)            

            1           2           3           4           5           6           7           8           9          10
 ........................................................................................................................
   1    1105.       1105.       0.000       0.000       0.000       0.000       0.000       0.000       0.000       0.000    
   2    1105.       1095.       1105.       0.000       0.000       1100.       1100.       1110.       0.000       0.000    
   3    0.000       1100.       1085.       1080.       1078.       1076.       1073.       1090.       0.000       0.000    
   4    1110.       1100.       1090.       1085.       1076.       1080.       1080.       1070.       1100.       0.000    
   5    1110.       1100.       1085.       1080.       1078.       1074.       1077.       1066.       1075.       1080.    
   6    1105.       1095.       1080.       1077.       1073.       1069.       1070.       1063.       1085.       1095.    
   7    1105.       1090.       1075.       1072.       1070.       1065.       1065.       1069.       1090.       0.000    
   8    0.000       1080.       1070.       1068.       1063.       1060.       1063.       1067.       1090.       0.000    
   9    0.000       1075.       1065.       1062.       1058.       1052.       1055.       1065.       1090.       0.000    
  10    0.000       1070.       1060.       1055.       1046.       1046.       1044.       1060.       1088.       1100.    
  11    0.000       1055.       1050.       1045.       1041.       1042.       1040.       1050.       1075.       0.000    
  12    1027.       1028.       1028.       1032.       1032.       1033.       1032.       1040.       1060.       0.000    
  13    997.0       1004.       1008.       1014.       1020.       1027.       1032.       1038.       1050.       0.000    
  14    0.000       1030.       1040.       1045.       1050.       1050.       1050.       1050.       1044.       0.000    
  15    0.000       0.000       1080.       1080.       1080.       1080.       0.000       0.000       0.000       0.000    



             MODEL LAYER BOTTOM EL. FOR LAYER   1
 READING ON UNIT    8 WITH FORMAT: (10F7.0)            

            1           2           3           4           5           6           7           8           9          10
 ........................................................................................................................
   1    1000.       1000.       0.000       0.000       0.000       0.000       0.000       0.000       0.000       0.000    
   2    1000.       900.0       900.0       0.000       0.000       950.0       950.0       950.0       0.000       0.000    
   3    0.000       850.0       670.0       680.0       680.0       770.0       770.0       890.0       0.000       0.000    
   4    925.0       850.0       650.0       650.0       650.0       680.0       740.0       850.0       950.0       0.000    
   5    925.0       800.0       650.0       600.0       600.0       600.0       650.0       720.0       850.0       950.0    
   6    925.0       800.0       650.0       600.0       550.0       600.0       650.0       720.0       850.0       970.0    
   7    925.0       800.0       650.0       600.0       550.0       600.0       650.0       720.0       950.0       0.000    
   8    0.000       850.0       700.0       650.0       570.0       600.0       700.0       850.0       950.0       0.000    
   9    0.000       850.0       700.0       650.0       540.0       580.0       700.0       850.0       950.0       0.000    
  10    0.000       850.0       700.0       630.0       530.0       580.0       650.0       800.0       900.0       950.0    
  11    0.000       850.0       700.0       620.0       580.0       620.0       700.0       800.0       900.0       0.000    
  12    900.0       830.0       710.0       640.0       600.0       650.0       700.0       800.0       900.0       0.000    
  13    900.0       810.0       750.0       700.0       650.0       700.0       750.0       800.0       900.0       0.000    
  14    0.000       950.0       850.0       850.0       850.0       850.0       850.0       850.0       850.0       0.000    
  15    0.000       0.000       950.0       950.0       950.0       950.0       0.000       0.000       0.000       0.000    


 STRESS PERIOD     LENGTH       TIME STEPS     MULTIPLIER FOR DELT    SS FLAG
 ----------------------------------------------------------------------------
        1         2628000.          1                    1.000         SS
        2         2628000.         30                    1.000         TR
        3         2628000.         30                    1.000         TR
        4         2628000.         30                    1.000         TR
        5         2628000.         30                    1.000         TR
        6         2628000.         30                    1.000         TR
        7         2628000.         30                    1.000         TR
        8         2628000.         30                    1.000         TR
        9         2628000.         30                    1.000         TR
       10         2628000.         30                    1.000         TR
       11         2628000.         30                    1.000         TR
       12         2628000.         30                    1.000         TR
       13         2628000.         30                    1.000         TR
       14         2628000.         30                    1.000         TR
       15         2628000.         30                    1.000         TR
       16         2628000.         30                    1.000         TR
       17         2628000.         30                    1.000         TR
       18         2628000.         30                    1.000         TR
       19         2628000.         30                    1.000         TR
       20         2628000.         30                    1.000         TR
       21         2628000.         30                    1.000         TR
       22         2628000.         30                    1.000         TR
       23         2628000.         30                    1.000         TR
       24         2628000.         30                    1.000         TR
       25         2628000.         30                    1.000         TR

 COMBINED STEADY-STATE AND TRANSIENT SIMULATION



 
 #Test Simulation 2-- Example problem using the UZF1 Package                     
 #Modified from example Problem 1 of SFR1 documentation report                   
 THE FREE FORMAT OPTION HAS BEEN SELECTED



                     BOUNDARY ARRAY FOR LAYER   1
 READING ON UNIT   75 WITH FORMAT: (20I4)              

                1           2           3           4           5           6           7           8           9          10
 ............................................................................................................................
   1            1           1           0           0           0           0           0           0           0           0
   2            1           1           1           0           0           1           1           1           0           0
   3            0           1           1           1           1           1           1           1           0           0
   4            1           1           1           1           1           1           1           1           1           0
   5            1           1           1           1           1           1           1           1           1           1
   6            1           1           1           1           1           1           1           1           1           1
   7            1           1           1           1           1           1           1           1           1           0
   8            0           1           1           1           1           1           1           1           1           0
   9            0           1           1           1           1           1           1           1           1           0
  10            0           1           1           1           1           1           1           1           1           1
  11            0           1           1           1           1           1           1           1           1           0
  12            1           1           1           1           1           1           1           1           1           0
  13            1           1           1           1           1           1           1           1           1           0
  14            0           1           1           1           1           1           1           1           1           0
  15            0           0           1           1           1           1           0           0           0           0

 AQUIFER HEAD WILL BE SET TO   6999.0     AT ALL NO-FLOW NODES (IBOUND=0).



                       INITIAL HEAD FOR LAYER   1
 READING ON UNIT   75 WITH FORMAT: (10F8.0)            

            1           2           3           4           5           6           7           8           9          10
 ........................................................................................................................
   1    1093.       1089.       6999.       6999.       6999.       6999.       6999.       6999.       6999.       6999.    
   2    1090.       1087.       1081.       6999.       6999.       1072.       1071.       1071.       6999.       6999.    
   3    6999.       1079.       1078.       1074.       1072.       1071.       1069.       1068.       6999.       6999.    
   4    1069.       1071.       1070.       1067.       1065.       1064.       1064.       1066.       1066.       6999.    
   5    1065.       1064.       1063.       1062.       1061.       1061.       1060.       1062.       1066.       1068.    
   6    1060.       1058.       1057.       1056.       1056.       1057.       1057.       1059.       1062.       1066.    
   7    1056.       1053.       1052.       1051.       1051.       1052.       1053.       1055.       1056.       6999.    
   8    6999.       1046.       1046.       1046.       1046.       1046.       1048.       1050.       1050.       6999.    
   9    6999.       1039.       1039.       1039.       1040.       1041.       1042.       1043.       1044.       6999.    
  10    6999.       1031.       1032.       1033.       1034.       1035.       1037.       1038.       1039.       1042.    
  11    6999.       1021.       1023.       1027.       1029.       1030.       1032.       1034.       1036.       6999.    
  12    1001.       1009.       1015.       1020.       1023.       1026.       1029.       1030.       1034.       6999.    
  13    994.5      1000.0       1007.       1013.       1019.       1024.       1029.       1034.       1036.       6999.    
  14    6999.       1004.       1009.       1014.       1019.       1024.       1029.       1035.       1039.       6999.    
  15    6999.       6999.       1012.       1015.       1019.       1022.       6999.       6999.       6999.       6999.    

 OUTPUT CONTROL IS SPECIFIED ONLY AT TIME STEPS FOR WHICH OUTPUT IS DESIRED
 HEADS WILL BE SAVED WITH FORMAT: (10F10.3)           
 SAVED HEADS WILL BE LABELED
 HEAD PRINT FORMAT CODE IS   4    DRAWDOWN PRINT FORMAT CODE IS   0
 HEADS WILL BE SAVED ON UNIT   62    DRAWDOWNS WILL BE SAVED ON UNIT    0
 # NWT Input File
 # Test Problem 3 for MODFLOW-NWT
 #HEADTOL  FLUXTOL MAXITEROUT THICKFACT LINMETH IPRNWT IBOTAV OPTIONS DBDREDUCE DBDINCREASE DBDGAMMA MOMFACT BACKFLAG MAXBACKITER BACKTOL BACKREDUCE

 NWT1 -- Newton Solver, VERSION 1.1.3, 8/01/2017
         INPUT READ FROM UNIT 13

 SPECIFIED OPTION:
 SOLVER INPUT VALUES ARE SPECIFIED BY USER
 ***XMD linear solver will be used***
 
   CONVERGENCE CRITERION OF   0.100000E-04 FOR HEAD SOLUTION
   AND A TOLERANCE OF   0.100000E+03 FOR FLOW SOLUTION AND 
   A MAXIMUM OF   200 OUTER ITERATIONS. 


   D-B-D REDUCTION FACTOR OF    0.990000E+00 AND 
   A D-B-D INCREASE FACTOR OF    0.100000E-04 AND 
   A D-B-D RELAXATION OF    0.000000E+00 AND 
   A MOMENTUM FACTOR OF    0.100000E+00 .


 ***BACKTRACKING IS INACTIVE***
 XMD -- LINEAR SOLUTION BY XMD PACKAGE VERSION 1.30
     BY MOTOMU IBARAKI, OHIO STATE UNIVERSITY, COLOMBUS, OH
                 INPUT READ FROM UNIT 13
 ACCELERATION METHOD                    (IACL) =         2
 NODE ORDERING FLAG                   (NORDER) =         0
 LEVEL OF FILL                         (LEVEL) =        10
 MAXIMUM NUMBER OF ORTHOGONALIZATIONS  (NORTH) =        10
 INDEX FOR USING REDUCED SYSTEM      (IREDSYS) =         1
 RESID. REDUCTION CONVERGE CRITERION  (RRCTOL) =  0.000000E+00
 INDEX FOR USING DROP TOLERANCE     (IDROPTOL) =         1
 DROP TOLERANCE VALUE                  (EPSRN) =  0.500000E-02
 CONVERGENCE CRITERIA OF           (HCLOSEXMD) =  0.100000E-03
 MAX. NUMBER OF LINEAR ITERATIONS  (MXITERXMD) =        50


 UPW1 -- UPSTREAM WEIGHTING FLOW PACKAGE, VERSION 1.1.3, 8/01/2017
         INPUT READ FROM UNIT  7

 #Layer-Property Flow Package input for test simulation 2
 CELL-BY-CELL FLOWS WILL BE SAVED ON UNIT  102
 No named parameters

   LAYER FLAGS:
 LAYER       LAYTYP          LAYAVG    CHANI           LAYVKA           LAYWET
 ---------------------------------------------------------------------------
    1             1             0     1.000E+00             0             0

   INTERPRETATION OF LAYER FLAGS:
                        INTERBLOCK     HORIZONTAL    DATA IN
         LAYER TYPE   TRANSMISSIVITY   ANISOTROPY   ARRAY VKA   WETTABILITY
 LAYER   (LAYTYP)        (LAYAVG)      (CHANI)     (LAYVKA)       (LAYWET)
 ---------------------------------------------------------------------------
    1   CONVERTIBLE      HARMONIC     1.000E+00    VERTICAL K  NON-WETTABLE



              HYD. COND. ALONG ROWS FOR LAYER   1
 READING ON UNIT    7 WITH FORMAT: (10F5.0)            

            1           2           3           4           5           6           7           8           9          10
 ........................................................................................................................
   1   2.0000E-03  2.0000E-03   0.000       0.000       0.000       0.000       0.000       0.000       0.000       0.000    
   2   4.0000E-04  2.0000E-03  2.0000E-03   0.000       0.000      4.0000E-04  4.0000E-04  4.0000E-04   0.000       0.000    
   3    0.000      4.0000E-04  2.0000E-03  2.0000E-03  4.0000E-04  4.0000E-04  4.0000E-04  4.0000E-04   0.000       0.000    
   4   4.0000E-04  4.0000E-04  4.0000E-04  2.0000E-03  2.0000E-03  2.0000E-03  4.0000E-04  4.0000E-04  4.0000E-04   0.000    
   5   4.0000E-04  4.0000E-04  4.0000E-04  2.0000E-03  2.0000E-03  2.0000E-03  2.0000E-03  2.0000E-03  2.0000E-03  2.0000E-03
   6   4.0000E-04  4.0000E-04  4.0000E-04  2.0000E-03  2.0000E-03  2.0000E-03  2.0000E-03  2.0000E-03  4.0000E-04  4.0000E-04
   7   4.0000E-04  4.0000E-04  4.0000E-04  2.0000E-03  2.0000E-03  2.0000E-03  2.0000E-03  2.0000E-03  4.0000E-04   0.000    
   8    0.000      4.0000E-04  4.0000E-04  2.0000E-03  2.0000E-03  2.0000E-03  2.0000E-03  4.0000E-04  4.0000E-04   0.000    
   9    0.000      4.0000E-04  4.0000E-04  2.0000E-03  2.0000E-03  2.0000E-03  2.0000E-03  4.0000E-04  4.0000E-04   0.000    
  10    0.000      4.0000E-04  4.0000E-04  2.0000E-03  2.0000E-03  2.0000E-03  2.0000E-03  4.0000E-04  4.0000E-04  4.0000E-04
  11    0.000      4.0000E-04  4.0000E-04  2.0000E-03  2.0000E-03  2.0000E-03  2.0000E-03  4.0000E-04  4.0000E-04   0.000    
  12   4.0000E-04  4.0000E-04  2.0000E-03  2.0000E-03  2.0000E-03  2.0000E-03  2.0000E-03  4.0000E-04  4.0000E-04   0.000    
  13   2.0000E-03  2.0000E-03  2.0000E-03  2.0000E-03  2.0000E-03  2.0000E-03  2.0000E-03  2.0000E-03  2.0000E-03   0.000    
  14    0.000      4.0000E-04  4.0000E-04  4.0000E-04  4.0000E-04  4.0000E-04  4.0000E-04  4.0000E-04  2.0000E-03   0.000    
  15    0.000       0.000      4.0000E-04  4.0000E-04  4.0000E-04  4.0000E-04   0.000       0.000       0.000       0.000    

      VERTICAL HYD. COND. =  1.000000E-06 FOR LAYER   1

         SPECIFIC STORAGE =  1.000000E-06 FOR LAYER   1



                     SPECIFIC YIELD FOR LAYER   1
 READING ON UNIT    7 WITH FORMAT: (10F5.0)            

            1           2           3           4           5           6           7           8           9          10
 ........................................................................................................................
   1   0.2000      0.2000       0.000       0.000       0.000       0.000       0.000       0.000       0.000       0.000    
   2   0.1000      0.2000      0.2000       0.000       0.000      0.1000      0.1000      0.1000       0.000       0.000    
   3    0.000      0.1000      0.2000      0.2000      0.1000      0.1000      0.1000      0.1000       0.000       0.000    
   4   0.1000      0.1000      0.1000      0.2000      0.2000      0.2000      0.1000      0.1000      0.1000       0.000    
   5   0.1000      0.1000      0.1000      0.2000      0.2000      0.2000      0.2000      0.2000      0.2000      0.2000    
   6   0.1000      0.1000      0.1000      0.2000      0.2000      0.2000      0.2000      0.2000      0.1000      0.1000    
   7   0.1000      0.1000      0.1000      0.2000      0.2000      0.2000      0.2000      0.2000      0.1000       0.000    
   8    0.000      0.1000      0.1000      0.2000      0.2000      0.2000      0.2000      0.1000      0.1000       0.000    
   9    0.000      0.1000      0.1000      0.2000      0.2000      0.2000      0.2000      0.1000      0.1000       0.000    
  10    0.000      0.1000      0.1000      0.2000      0.2000      0.2000      0.2000      0.1000      0.1000      0.1000    
  11    0.000      0.1000      0.1000      0.2000      0.2000      0.2000      0.2000      0.1000      0.1000       0.000    
  12   0.1000      0.1000      0.2000      0.2000      0.2000      0.2000      0.2000      0.1000      0.1000       0.000    
  13   0.2000      0.2000      0.2000      0.2000      0.2000      0.2000      0.2000      0.2000      0.2000       0.000    
  14    0.000      0.1000      0.1000      0.1000      0.1000      0.1000      0.1000      0.1000      0.2000       0.000    
  15    0.000       0.000      0.1000      0.1000      0.1000      0.1000       0.000       0.000       0.000       0.000    

 WEL -- WELL PACKAGE FOR NWT VERSION 1.1.2,  9/15/2016 INPUT READ FROM UNIT   16
 #Well Package input for test simulation 2
 No named parameters

 PROCESSING                  OPTIONS
  Option to pump supplmental water for surface diversion shortfall is activted.  A total of          1supplemental wells are active
  Option to apply pumped water as irrigtion is active. 'Pumped irrigation water will be applied to          1 UZF Cells.

 END PROCESSING                  OPTIONS
 MAXIMUM OF     10 ACTIVE WELLS AT ONE TIME
 No named parameters
  PHIRAMP WILL BE SET TO A DEFAULT VALUE OF 1.0E-5
  WELLS WITH REDUCED PUMPING WILL BE REPORTED TO THE MAIN LISTING FILE


     0 Well parameters

 GHB -- GENERAL-HEAD BOUNDARY PACKAGE, VERSION 7, 5/2/2005
         INPUT READ FROM UNIT   17
 No named parameters
 MAXIMUM OF      2 ACTIVE GHB CELLS AT ONE TIME
 CELL-BY-CELL FLOWS WILL BE PRINTED WHEN ICBCFL NOT 0


     0 GHB parameters

 SFR7 -- STREAMFLOW ROUTING PACKAGE, VERSION 1.0.5, 2012-04-05
         INPUT READ FROM UNIT  15
 #SFR2 Package input for Testing supplimental pumping and irrigation
 No named parameters

 PROCESSING SFR2 OPTIONS
 
 
Stream loss will be calculated as a factor of the streambed hydraulic conductivity. Multiplication factor is equal to     0.1000000015E+00
          2 Specified inflow files will be read with a maximum of        759 row entries per file
 Invalid SFR2 Option: IRRIGATE
