                                  MODFLOW-NWT-SWR1 
      U.S. GEOLOGICAL SURVEY MODULAR FINITE-DIFFERENCE GROUNDWATER-FLOW MODEL
                            VERSION 1.1.2, 9/15/2016
                    BASED ON MODFLOW-2005 VERSION 1.11.00 08/08/2013

 LIST FILE: .\uzftest_single_line_options\UzfTest.lst
                         UNIT   11

 OPENING .\uzftest_single_line_options\UzfTest.cbc
 FILE TYPE:DATA(BINARY)   UNIT    9   STATUS:REPLACE
 FORMAT:BINARY                 ACCESS:SEQUENTIAL          

 OPENING .\uzftest_single_line_options\UzfTest.dis
 FILE TYPE:DIS   UNIT   12   STATUS:OLD    
 FORMAT:FORMATTED              ACCESS:SEQUENTIAL          

 OPENING .\uzftest_single_line_options\UzfTest.bas
 FILE TYPE:BAS6   UNIT   13   STATUS:OLD    
 FORMAT:FORMATTED              ACCESS:SEQUENTIAL          

 OPENING .\uzftest_single_line_options\UzfTest.oc
 FILE TYPE:OC   UNIT   39   STATUS:OLD    
 FORMAT:FORMATTED              ACCESS:SEQUENTIAL          

 OPENING .\uzftest_single_line_options\UzfTest.fhd
 FILE TYPE:DATA   UNIT   37   STATUS:REPLACE
 FORMAT:FORMATTED              ACCESS:SEQUENTIAL          

 OPENING .\uzftest_single_line_options\UzfTest.fdn
 FILE TYPE:DATA   UNIT   38   STATUS:REPLACE
 FORMAT:FORMATTED              ACCESS:SEQUENTIAL          

 OPENING .\uzftest_single_line_options\UzfTest.pcg
 FILE TYPE:PCG   UNIT   18   STATUS:OLD    
 FORMAT:FORMATTED              ACCESS:SEQUENTIAL          

 OPENING .\uzftest_single_line_options\UzfTest.lpf
 FILE TYPE:LPF   UNIT   14   STATUS:OLD    
 FORMAT:FORMATTED              ACCESS:SEQUENTIAL          

 OPENING .\uzftest_single_line_options\UzfTest.chd
 FILE TYPE:CHD   UNIT   17   STATUS:OLD    
 FORMAT:FORMATTED              ACCESS:SEQUENTIAL          

 OPENING .\uzftest_single_line_options\UzfTest.sfr
 FILE TYPE:SFR   UNIT   29   STATUS:OLD    
 FORMAT:FORMATTED              ACCESS:SEQUENTIAL          

 OPENING .\uzftest_single_line_options\UzfTest.sfrg1
 FILE TYPE:DATA   UNIT ****   STATUS:REPLACE
 FORMAT:FORMATTED              ACCESS:SEQUENTIAL          

 OPENING .\uzftest_single_line_options\UzfTest.sfrg2
 FILE TYPE:DATA   UNIT ****   STATUS:REPLACE
 FORMAT:FORMATTED              ACCESS:SEQUENTIAL          

 OPENING .\uzftest_single_line_options\UzfTest.uzf
 FILE TYPE:UZF   UNIT   31   STATUS:OLD    
 FORMAT:FORMATTED              ACCESS:SEQUENTIAL          

 OPENING .\uzftest_single_line_options\UzfTest.gag
 FILE TYPE:GAGE   UNIT   40   STATUS:OLD    
 FORMAT:FORMATTED              ACCESS:SEQUENTIAL          

 BAS -- BASIC PACKAGE, VERSION 1.1.2, 9/15/2016 INPUT READ FROM UNIT   13
 
 MODFLOW was compiled using mixed precision
 Precision of REAL variables:           6
 Precision of DOUBLE PRECISION variables:          15

 DISCRETIZATION INPUT DATA READ FROM UNIT   12
 # Discretization File created on 1/23/2017 by ModelMuse version 3.8.1.25.
 # Upper left corner: (0, 0)
 # Lower left corner: (0, -2000)
 # Upper right corner: (2000, 0)
 # Lower right corner: (2000, -2000)
 # Grid angle (in degrees counterclockwise): 0
    2 LAYERS        20 ROWS        20 COLUMNS
    2 STRESS PERIOD(S) IN SIMULATION
 MODEL TIME UNIT IS SECONDS
 MODEL LENGTH UNIT IS METERS
  Confining bed flag for each layer:
   0   0

                     DELR =   100.000    

                     DELC =   100.000    

 TOP ELEVATION OF LAYER 1 =   0.00000    

   MODEL LAYER BOTTOM EL. =  -10.0000     FOR LAYER   1

   MODEL LAYER BOTTOM EL. =  -20.0000     FOR LAYER   2


 STRESS PERIOD     LENGTH       TIME STEPS     MULTIPLIER FOR DELT    SS FLAG
 ----------------------------------------------------------------------------
        1         1.000000          1                    1.000         SS
        2         2000.000         25                    1.300         TR

 COMBINED STEADY-STATE AND TRANSIENT SIMULATION



 
 # Basic Package file created on 1/23/2017 by ModelMuse version 3.8.1.25.        
 THE FREE FORMAT OPTION HAS BEEN SELECTED
 THE PRINTTIME OPTION HAS BEEN SELECTED
 CALCULATE FLOW BETWEEN ADJACENT CONSTANT-HEAD CELLS

           BOUNDARY ARRAY =              1 FOR LAYER   1

           BOUNDARY ARRAY =              1 FOR LAYER   2

 AQUIFER HEAD WILL BE SET TO -1.00000E+20 AT ALL NO-FLOW NODES (IBOUND=0).

             INITIAL HEAD =   0.00000     FOR LAYER   1

             INITIAL HEAD =   0.00000     FOR LAYER   2
 # Output Control file created on 1/23/2017 by ModelMuse version 3.8.1.25.

 OUTPUT CONTROL IS SPECIFIED ONLY AT TIME STEPS FOR WHICH OUTPUT IS DESIRED
 HEADS WILL BE SAVED WITH FORMAT: (10(1X1PE13.5))     
 SAVED HEADS WILL BE LABELED
 DRAWDOWN WILL BE SAVED WITH FORMAT: (10(1X1PE13.5))     
 SAVED DRAWDOWN WILL BE LABELED
 COMPACT CELL-BY-CELL BUDGET FILES WILL BE WRITTEN
 AUXILIARY DATA WILL BE SAVED IN CELL-BY-CELL BUDGET FILES
 HEAD PRINT FORMAT CODE IS   0    DRAWDOWN PRINT FORMAT CODE IS   0
 HEADS WILL BE SAVED ON UNIT   37    DRAWDOWNS WILL BE SAVED ON UNIT   38

 LPF -- LAYER-PROPERTY FLOW PACKAGE, VERSION 7, 5/2/2005
         INPUT READ FROM UNIT   14
 # LPF: Layer Property Flow package file created on 1/23/2017 by ModelMuse version 3.8.1.25.
 CELL-BY-CELL FLOWS WILL BE SAVED ON UNIT    9
 HEAD AT CELLS THAT CONVERT TO DRY= -2.00000E+20
 No named parameters

   LAYER FLAGS:
 LAYER       LAYTYP        LAYAVG         CHANI        LAYVKA        LAYWET
 ---------------------------------------------------------------------------
    1             1             0    -1.000E+00             0             0
    2             0             0    -1.000E+00             0             0

   INTERPRETATION OF LAYER FLAGS:
                        INTERBLOCK     HORIZONTAL    DATA IN
         LAYER TYPE   TRANSMISSIVITY   ANISOTROPY   ARRAY VKA   WETTABILITY
 LAYER      (LAYTYP)      (LAYAVG)       (CHANI)      (LAYVKA)      (LAYWET)
 ---------------------------------------------------------------------------
    1   CONVERTIBLE      HARMONIC      VARIABLE    VERTICAL K  NON-WETTABLE
    2      CONFINED      HARMONIC      VARIABLE    VERTICAL K  NON-WETTABLE

 WETTING CAPABILITY IS NOT ACTIVE IN ANY LAYER

    HYD. COND. ALONG ROWS =   100.000     FOR LAYER   1

   HORIZ. ANI. (COL./ROW) =   1.00000     FOR LAYER   1

      VERTICAL HYD. COND. =   10.0000     FOR LAYER   1

         SPECIFIC STORAGE =  1.000000E-05 FOR LAYER   1

           SPECIFIC YIELD =  0.200000     FOR LAYER   1

    HYD. COND. ALONG ROWS =   100.000     FOR LAYER   2

   HORIZ. ANI. (COL./ROW) =   1.00000     FOR LAYER   2

      VERTICAL HYD. COND. =   10.0000     FOR LAYER   2

         SPECIFIC STORAGE =  1.000000E-05 FOR LAYER   2

 CHD -- TIME-VARIANT SPECIFIED-HEAD OPTION, VERSION 7, 5/2/2005
 INPUT READ FROM UNIT   17
 # CHD: Time-Variant Specified-Head package file created on 1/23/2017 by ModelMuse version 3.8.1.25.
 No named parameters
 MAXIMUM OF      1 TIME-VARIANT SPECIFIED-HEAD CELLS AT ONE TIME
 AUXILIARY CHD VARIABLE: IFACE           


     0 TIME-VARIANT SPECIFIED-HEAD PARAMETERS

 SFR7 -- STREAMFLOW ROUTING PACKAGE, VERSION 1.0.5, 2012-04-05
         INPUT READ FROM UNIT  29
 # SFR: Stream-Flow Routing package file created on 1/23/2017 by ModelMuse version 3.8.1.25.
 No named parameters


 END PROCESSING SFR2 OPTIONS


 NUMBER OF STREAM REACHES IS   33

 NUMBER OF STREAM SEGMENTS IS    2

 NUMBER OF STREAM PARAMETERS IS    0

 NUMBER OF STREAM SEGMENTS DEFINED USING PARAMETERS IS              0

 MAXIMUM ERROR FOR STREAM LEAKAGE RATES IS  1.00E-04

 CONSTANT FOR MANNINGS EQUATION IS  1.0000E+00





 OPTION FOR UNSATURATED FLOW BENEATH STREAMBEDS IS ACTIVE 


 FLOW TO AND FROM GROUND WATER FOR EACH STREAM REACH WILL BE SAVED ON UNIT    9
 STREAM OUTPUT WILL BE WRITTEN TO FILE ON UNIT   11


   STREAM NETWORK DESCRIPTION: 

   LAYER    ROW    COL   SEGMENT   REACH     LENGTH
                          NUMBER   NUMBER    IN CELL        
   --------------------------------------------------
      1      2      2       1        1    4.4443E+01
      1      2      3       1        2    4.8339E+01
      1      3      3       1        3    9.3879E+01
      1      3      4       1        4    4.6759E+01
      1      4      4       1        5    9.5459E+01
      1      4      5       1        6    4.5178E+01
      1      5      5       1        7    9.7040E+01
      1      5      6       1        8    4.3598E+01
      1      6      6       1        9    9.8620E+01
      1      6      7       1       10    4.2018E+01
      1      7      7       1       11    1.0020E+02
      1      7      8       1       12    4.0438E+01
      1      8      8       1       13    1.0178E+02
      1      8      9       1       14    3.8858E+01
      1      9      9       1       15    1.0336E+02
      1      9     10       1       16    3.7277E+01
      1     10     10       1       17    2.1486E+01
      1     10     11       2        1    4.5648E+01
      1     11     11       2        2    9.4409E+01
      1     11     12       2        3    4.5450E+01
      1     12     12       2        4    9.7588E+01
      1     12     13       2        5    4.2271E+01
      1     13     13       2        6    1.0077E+02
      1     13     14       2        7    3.9092E+01
      1     14     14       2        8    1.0394E+02
      1     14     15       2        9    3.5914E+01
      1     15     15       2       10    1.0712E+02
      1     15     16       2       11    3.2735E+01
      1     16     16       2       12    1.1030E+02
      1     16     17       2       13    2.9557E+01
      1     17     17       2       14    1.1348E+02
      1     17     18       2       15    2.6378E+01
      1     18     18       2       16    6.7987E+01




 UZF1 -- UNSATURATED FLOW PACKAGE, VERSION 1.4, 02/06/2012
         INPUT READ FROM UNIT 31
 # UZF: Unsaturated-Zone Flow package file created on 1/23/2017 by ModelMuse version 3.8.1.25.
 No named parameters
 
 INITIAL WATER CONTENT (THTI) WILL BE 
READ FOR THE FIRST SS OR TR STRESS PERIOD
 
 
 SURFACE LEAKAGE WILL NOT BE SIMULATED 
 

 END PROCESSING UZF OPTIONS

  AREAL EXTENT OF UZ FLOW =              0
 OPTION 1 -- RECHARGE IN UZF TO TOP LAYER ONLY 



            ROUTING OVERLAND RUNOFF
 READING ON UNIT   31 WITH FORMAT: (FREE)              

          1     2     3     4     5     6     7     8     9    10    11    12    13    14    15    16    17    18    19    20
 ............................................................................................................................
   1      1     1     1     1     1     1     1     1     1     1     1     1     1     1     1     1     1     1     1     1
   2      1     1     1     1     1     1     1     1     1     1     1     1     1     1     1     1     1     1     1     1
   3      1     1     1     1     1     1     1     1     1     1     1     1     1     1     1     1     1     1     1     2
   4      1     1     1     1     1     1     1     1     1     1     1     1     1     1     1     1     1     1     2     2
   5      1     1     1     1     1     1     1     1     1     1     1     1     1     1     1     1     1     2     2     2
   6      1     1     1     1     1     1     1     1     1     1     1     1     1     1     1     1     2     2     2     2
   7      1     1     1     1     1     1     1     1     1     1     1     1     1     1     1     2     2     2     2     2
   8      1     1     1     1     1     1     1     1     1     1     1     1     1     1     2     2     2     2     2     2
   9      1     1     1     1     1     1     1     1     1     1     1     1     1     2     2     2     2     2     2     2
  10      1     1     1     1     1     1     1     1     1     1     2     1     2     2     2     2     2     2     2     2
  11      1     1     1     1     1     1     1     1     1     1     2     2     2     2     2     2     2     2     2     2
  12      1     1     1     1     1     1     1     1     1     2     2     2     2     2     2     2     2     2     2     2
  13      1     1     1     1     1     1     1     1     2     2     2     2     2     2     2     2     2     2     2     2
  14      1     1     1     1     1     1     1     2     2     2     2     2     2     2     2     2     2     2     2     2
  15      1     1     1     1     1     1     2     2     2     2     2     2     2     2     2     2     2     2     2     2
  16      1     1     1     1     1     2     2     2     2     2     2     2     2     2     2     2     2     2     2     2
  17      1     1     1     1     2     2     2     2     2     2     2     2     2     2     2     2     2     2     2     2
  18      1     1     1     2     2     2     2     2     2     2     2     2     2     2     2     2     2     2     2     2
  19      1     1     2     2     2     2     2     2     2     2     2     2     2     2     2     2     2     2     2     2
  20      1     2     2     2     2     2     2     2     2     2     2     2     2     2     2     2     2     2     2     2

     SATURATED VERTICAL K =   1.00000    

     BROOKS-COREY EPSILON =   3.50000    

  SATURATED WATER CONTENT =  0.300000    

    INITIAL WATER CONTENT =  0.300000    



   2 GAGING STATIONS WERE SPECIFIED.
     (Lakes are identified by a negative value of the Lake Number)
     RECORDS WILL BE WRITTEN TO SEPARATE OUTPUT FILES REPRESENTED BY FOLLOWING UNIT NUMBERS:

 Stream Gages:
  GAGE #   SEGMENT   REACH   UNIT   OUTTYPE
       1       1       1   20205       0
       2       2      16   20206       0





 PCG -- CONJUGATE-GRADIENT SOLUTION PACKAGE, VERSION 7, 5/2/2005
 # PCG: Preconditioned Conjugate Gradient package file created on 1/23/2017 by ModelMuse version 3.8.1.25.
 MAXIMUM OF     20 CALLS OF SOLUTION ROUTINE
 MAXIMUM OF     30 INTERNAL ITERATIONS PER CALL TO SOLUTION ROUTINE
 MATRIX PRECONDITIONING TYPE :    1



                                    SOLUTION BY THE CONJUGATE-GRADIENT METHOD
                                   -------------------------------------------
                    MAXIMUM NUMBER OF CALLS TO PCG ROUTINE =       20
                        MAXIMUM ITERATIONS PER CALL TO PCG =       30
                               MATRIX PRECONDITIONING TYPE =        1
        RELAXATION FACTOR (ONLY USED WITH PRECOND. TYPE 1) =    0.10000E+01
 PARAMETER OF POLYNOMIAL PRECOND. = 2 (2) OR IS CALCULATED :        1
                         HEAD CHANGE CRITERION FOR CLOSURE =    0.10000E-03
                     RESIDUAL CHANGE CRITERION FOR CLOSURE =    0.10000E-03
            PCG HEAD AND RESIDUAL CHANGE PRINTOUT INTERVAL =        1
     PRINTING FROM SOLVER IS LIMITED(1) OR SUPPRESSED (>1) =        0
                            STEADY-STATE DAMPING PARAMETER =    0.10000E+01
                               TRANSIENT DAMPING PARAMETER =    0.10000E+01
1
                            STRESS PERIOD NO.    1, LENGTH =   1.000000    
                            -----------------------------------------------

                              NUMBER OF TIME STEPS =     1

                               MULTIPLIER FOR DELT =     1.000

                            INITIAL TIME STEP SIZE =   1.000000    

 CHD NO.   LAYER   ROW   COL    START HEAD        END HEAD         IFACE           
 ----------------------------------------------------------------------------------
      1      1      1      1       3.000           3.000           0.000    


      1 TIME-VARIANT SPECIFIED-HEAD CELLS



 CLASSIFICATION & COUNT OF STREAM SEGMENTS BASED ON SOURCE OF INFLOW:

                HEADWATER     DIVERSION     RECEIVES TRIBUTARY FLOW
                ---------     ---------     -----------------------
                     1              0               1



                    INPUT DATA FOR EACH STREAM SEGMENT
 ---------------------------------------------------------------------------------------------

 SEGMENT    SEG.     INFLOW   OVERLAND   STREAM    STREAM   ICALC  OUTFLOW  DIVERSION PRIORITY
    NO.    LENGTH     RATE     RUNOFF      ET       PPT.    METH.  TO SEG.  FROM SEG.    NO.

      1  1.099E+03 1.000E+00 0.000E+00 0.000E+00 0.000E+00    0        2        0        0
      2  1.093E+03 0.000E+00 0.000E+00 0.000E+00 0.000E+00    0        0        0        0


         STREAMBED PROPERTIES AND STREAM DIMENSIONS

 SEGMENT     BED HYD. COND.      BED THICKNESS     ELEV.-TOP OF BED     WIDTH OF STREAM     DEPTH OF STREAM    STREAM ROUGHNESS    SAT. WATER CONT.    INT. WATER CONT.    BROOKS/COREY EPS.
    No.     UPPER     LOWER     UPPER     LOWER     UPPER     LOWER     UPPER     LOWER     UPPER     LOWER   CHANNEL      BANK     UPPER     LOWER     UPPER     LOWER     UPPER     LOWER

     1  1.000E-05 1.000E-05 1.000E+00 1.000E+00 2.000E+00 1.000E+00 1.000E+00 1.000E+00 1.000E+00 1.000E+00
     2  1.000E-05 1.000E-05 1.000E+00 1.000E+00 1.000E+00 0.000E+00 1.000E+00 1.000E+00 1.000E+00 1.000E+00




  AREAL INFILTRATION RATE =   0.00000    

                  ET RATE =   0.00000    

      ET EXTINCTION DEPTH =   1.00000    

 EXTINCTION WATER CONTENT =  0.200000    
 
 SOLVING FOR HEAD 


     3 CALLS TO PCG ROUTINE FOR TIME STEP     1 IN STRESS PERIOD    1
    29 TOTAL ITERATIONS

 MAXIMUM HEAD CHANGE FOR EACH ITERATION (1 INDICATES THE FIRST INNER ITERATION):

    HEAD CHANGE    HEAD CHANGE    HEAD CHANGE    HEAD CHANGE    HEAD CHANGE 
   LAYER,ROW,COL  LAYER,ROW,COL  LAYER,ROW,COL  LAYER,ROW,COL  LAYER,ROW,COL
 ---------------------------------------------------------------------------
  1   3.000      0 -0.1297E-04  0 -0.1008E-04  0 -0.9989E-05  0 -0.5107E-05
   (  1,  1, 18)  (  2,  1, 20)  (  2,  7,  7)  (  2, 13,  7)  (  2,  6, 12)
  0 -0.2619E-05  0 -0.1195E-05  0 -0.1293E-05  0 -0.9467E-06  0 -0.5464E-06
   (  1,  1, 20)  (  2,  4, 13)  (  2, 20,  3)  (  2,  1, 20)  (  2, 20, 11)
  0 -0.2437E-06  0 -0.1877E-06  0 -0.7180E-07  0  0.3601E-07  0 -0.4102E-07
   (  2, 20,  1)  (  2, 14,  5)  (  2, 20,  5)  (  2, 20,  1)  (  2,  1, 20)
  1 -0.1305E-04  0 -0.7950E-05  0 -0.2949E-05  0 -0.2485E-05  0 -0.1318E-05
   (  2,  9,  9)  (  2, 20,  6)  (  2, 11,  6)  (  2, 20,  1)  (  2,  3,  2)
  0 -0.8844E-06  0 -0.5972E-06  0 -0.3616E-06  0 -0.2280E-06  0 -0.1632E-06
   (  2, 20,  1)  (  2,  7,  1)  (  2,  1,  7)  (  2, 20,  1)  (  2,  1, 20)
  0 -0.4081E-07  0 -0.2310E-07  0 -0.2306E-07  1  0.9440E-08
   (  1, 20,  7)  (  2, 20,  6)  (  2, 20,  1)  (  2, 20,  1)

 MAXIMUM RESIDUAL FOR EACH ITERATION (1 INDICATES THE FIRST INNER ITERATION):

    RESIDUAL       RESIDUAL       RESIDUAL       RESIDUAL       RESIDUAL    
   LAYER,ROW,COL  LAYER,ROW,COL  LAYER,ROW,COL  LAYER,ROW,COL  LAYER,ROW,COL
 ---------------------------------------------------------------------------
  1 -0.1790E-01  0 -0.1716E-01  0 -0.1442E-01  0 -0.1107E-01  0 -0.9025E-02
   (  2,  1,  1)  (  2,  1,  1)  (  2,  1,  1)  (  2,  1,  1)  (  2,  1,  1)
  0 -0.6625E-02  0 -0.5360E-02  0 -0.3804E-02  0 -0.2741E-02  0 -0.1388E-02
   (  2,  1,  1)  (  2,  1,  1)  (  2,  1,  1)  (  2,  1,  1)  (  2,  1,  1)
  0  0.8461E-03  0 -0.4731E-03  0  0.2687E-03  0  0.1454E-03  0  0.6992E-04
   (  2,  2,  1)  (  1,  2,  2)  (  2,  2,  1)  (  2,  2,  1)  (  2,  2,  1)
  1  0.3647E-02  0  0.5198E-02  0  0.5270E-02  0  0.4493E-02  0  0.3311E-02
   (  2,  2,  2)  (  2,  2,  2)  (  2,  2,  2)  (  2,  2,  2)  (  2,  2,  1)
  0  0.2145E-02  0  0.1243E-02  0 -0.7184E-03  0  0.4386E-03  0  0.3148E-03
   (  2,  1,  2)  (  2,  2,  1)  (  1,  2,  2)  (  2,  2,  1)  (  2,  2,  1)
  0  0.2087E-03  0  0.1219E-03  0  0.4319E-04  1  0.3503E-04
   (  2,  2,  1)  (  2,  2,  1)  (  2,  2,  1)  (  2,  2,  1)



 OUTPUT CONTROL FOR STRESS PERIOD    1   TIME STEP    1
 Drawdown Reference will be reset at the end of this time step
    SAVE HEAD FOR ALL LAYERS
    SAVE DRAWDOWN FOR ALL LAYERS
    SAVE BUDGET
    PRINT BUDGET
 UBDSV2 SAVING "   CONSTANT HEAD" ON UNIT   9 AT TIME STEP     1, STRESS PERIOD   1
 UBDSV1 SAVING "FLOW RIGHT FACE " ON UNIT   9 AT TIME STEP     1, STRESS PERIOD   1
 UBDSV1 SAVING "FLOW FRONT FACE " ON UNIT   9 AT TIME STEP     1, STRESS PERIOD   1
 UBDSV1 SAVING "FLOW LOWER FACE " ON UNIT   9 AT TIME STEP     1, STRESS PERIOD   1
 UBDSV4 SAVING "  STREAM LEAKAGE" ON UNIT   9 AT TIME STEP     1, STRESS PERIOD   1



 STREAM LISTING     PERIOD      1   STEP        1

 LAYER ROW COL. STREAM  RCH.   FLOW INTO    STREAM     FLOW OUT OF   OVRLND.    DIRECT     STREAM      STREAM      STREAM     STREAM  STREAMBED   FLOW TO   CHNG. UNSAT. 
                SEG.NO.  NO.   STRM. RCH.    LOSS       STRM. RCH.   RUNOFF     PRECIP       ET         HEAD        DEPTH      WIDTH  CONDCTNC.   WAT. TAB.

   1    2    2     1     1    1.0000E+00 -8.9848E-06   1.0000E+00  0.000E+00  0.000E+00  0.000E+00  2.97978E+00  1.000E+00  1.000E+00  4.444E-04  0.000E+00  0.000E+00
   1    2    3     1     2    1.0000E+00 -3.0181E-05   1.0000E+00  0.000E+00  0.000E+00  0.000E+00  2.93755E+00  1.000E+00  1.000E+00  4.834E-04  0.000E+00  0.000E+00
   1    3    3     1     3    1.0000E+00 -1.1937E-04   1.0002E+00  0.000E+00  0.000E+00  0.000E+00  2.87283E+00  1.000E+00  1.000E+00  9.388E-04  0.000E+00  0.000E+00
   1    3    4     1     4    1.0002E+00 -8.9380E-05   1.0002E+00  0.000E+00  0.000E+00  0.000E+00  2.80883E+00  1.000E+00  1.000E+00  4.676E-04  0.000E+00  0.000E+00
   1    4    4     1     5    1.0002E+00 -2.4425E-04   1.0005E+00  0.000E+00  0.000E+00  0.000E+00  2.74411E+00  1.000E+00  1.000E+00  9.546E-04  0.000E+00  0.000E+00
   1    4    5     1     6    1.0005E+00 -1.4451E-04   1.0006E+00  0.000E+00  0.000E+00  0.000E+00  2.68011E+00  1.000E+00  1.000E+00  4.518E-04  0.000E+00  0.000E+00
   1    5    5     1     7    1.0006E+00 -3.7320E-04   1.0010E+00  0.000E+00  0.000E+00  0.000E+00  2.61540E+00  1.000E+00  1.000E+00  9.704E-04  0.000E+00  0.000E+00
   1    5    6     1     8    1.0010E+00 -1.9558E-04   1.0012E+00  0.000E+00  0.000E+00  0.000E+00  2.55140E+00  1.000E+00  1.000E+00  4.360E-04  0.000E+00  0.000E+00
   1    6    6     1     9    1.0012E+00 -5.0622E-04   1.0017E+00  0.000E+00  0.000E+00  0.000E+00  2.48668E+00  1.000E+00  1.000E+00  9.862E-04  0.000E+00  0.000E+00
   1    6    7     1    10    1.0017E+00 -2.4257E-04   1.0020E+00  0.000E+00  0.000E+00  0.000E+00  2.42268E+00  1.000E+00  1.000E+00  4.202E-04  0.000E+00  0.000E+00
   1    7    7     1    11    1.0020E+00 -6.4331E-04   1.0026E+00  0.000E+00  0.000E+00  0.000E+00  2.35796E+00  1.000E+00  1.000E+00  1.002E-03  0.000E+00  0.000E+00
   1    7    8     1    12    1.0026E+00 -2.8550E-04   1.0029E+00  0.000E+00  0.000E+00  0.000E+00  2.29396E+00  1.000E+00  1.000E+00  4.044E-04  0.000E+00  0.000E+00
   1    8    8     1    13    1.0029E+00 -7.8446E-04   1.0037E+00  0.000E+00  0.000E+00  0.000E+00  2.22924E+00  1.000E+00  1.000E+00  1.018E-03  0.000E+00  0.000E+00
   1    8    9     1    14    1.0037E+00 -3.2436E-04   1.0040E+00  0.000E+00  0.000E+00  0.000E+00  2.16524E+00  1.000E+00  1.000E+00  3.886E-04  0.000E+00  0.000E+00
   1    9    9     1    15    1.0040E+00 -9.2969E-04   1.0049E+00  0.000E+00  0.000E+00  0.000E+00  2.10052E+00  1.000E+00  1.000E+00  1.034E-03  0.000E+00  0.000E+00
   1    9   10     1    16    1.0049E+00 -3.5915E-04   1.0053E+00  0.000E+00  0.000E+00  0.000E+00  2.03652E+00  1.000E+00  1.000E+00  3.728E-04  0.000E+00  0.000E+00
   1   10   10     1    17    1.0053E+00 -2.1276E-04   1.0055E+00  0.000E+00  0.000E+00  0.000E+00  2.00978E+00  1.000E+00  1.000E+00  2.149E-04  0.000E+00  0.000E+00
   1   10   11     2     1    1.0055E+00 -4.6601E-04   1.0060E+00  0.000E+00  0.000E+00  0.000E+00  1.97911E+00  1.000E+00  1.000E+00  4.565E-04  0.000E+00  0.000E+00
   1   11   11     2     2    1.0060E+00 -1.0243E-03   1.0070E+00  0.000E+00  0.000E+00  0.000E+00  1.91502E+00  1.000E+00  1.000E+00  9.441E-04  0.000E+00  0.000E+00
   1   11   12     2     3    1.0070E+00 -5.2220E-04   1.0075E+00  0.000E+00  0.000E+00  0.000E+00  1.85102E+00  1.000E+00  1.000E+00  4.545E-04  0.000E+00  0.000E+00
   1   12   12     2     4    1.0075E+00 -1.1851E-03   1.0087E+00  0.000E+00  0.000E+00  0.000E+00  1.78557E+00  1.000E+00  1.000E+00  9.759E-04  0.000E+00  0.000E+00
   1   12   13     2     5    1.0087E+00 -5.4040E-04   1.0092E+00  0.000E+00  0.000E+00  0.000E+00  1.72157E+00  1.000E+00  1.000E+00  4.227E-04  0.000E+00  0.000E+00
   1   13   13     2     6    1.0092E+00 -1.3542E-03   1.0106E+00  0.000E+00  0.000E+00  0.000E+00  1.65611E+00  1.000E+00  1.000E+00  1.008E-03  0.000E+00  0.000E+00
   1   13   14     2     7    1.0106E+00 -5.5037E-04   1.0111E+00  0.000E+00  0.000E+00  0.000E+00  1.59211E+00  1.000E+00  1.000E+00  3.909E-04  0.000E+00  0.000E+00
   1   14   14     2     8    1.0111E+00 -1.5314E-03   1.0127E+00  0.000E+00  0.000E+00  0.000E+00  1.52666E+00  1.000E+00  1.000E+00  1.039E-03  0.000E+00  0.000E+00
   1   14   15     2     9    1.0127E+00 -5.5211E-04   1.0132E+00  0.000E+00  0.000E+00  0.000E+00  1.46266E+00  1.000E+00  1.000E+00  3.591E-04  0.000E+00  0.000E+00
   1   15   15     2    10    1.0132E+00 -1.7169E-03   1.0149E+00  0.000E+00  0.000E+00  0.000E+00  1.39720E+00  1.000E+00  1.000E+00  1.071E-03  0.000E+00  0.000E+00
   1   15   16     2    11    1.0149E+00 -5.4562E-04   1.0155E+00  0.000E+00  0.000E+00  0.000E+00  1.33320E+00  1.000E+00  1.000E+00  3.274E-04  0.000E+00  0.000E+00
   1   16   16     2    12    1.0155E+00 -1.9107E-03   1.0174E+00  0.000E+00  0.000E+00  0.000E+00  1.26775E+00  1.000E+00  1.000E+00  1.103E-03  0.000E+00  0.000E+00
   1   16   17     2    13    1.0174E+00 -5.3090E-04   1.0179E+00  0.000E+00  0.000E+00  0.000E+00  1.20375E+00  1.000E+00  1.000E+00  2.956E-04  0.000E+00  0.000E+00
   1   17   17     2    14    1.0179E+00 -2.1127E-03   1.0200E+00  0.000E+00  0.000E+00  0.000E+00  1.13829E+00  1.000E+00  1.000E+00  1.135E-03  0.000E+00  0.000E+00
   1   17   18     2    15    1.0200E+00 -5.0796E-04   1.0205E+00  0.000E+00  0.000E+00  0.000E+00  1.07429E+00  1.000E+00  1.000E+00  2.638E-04  0.000E+00  0.000E+00
   1   18   18     2    16    1.0205E+00 -1.3386E-03   1.0219E+00  0.000E+00  0.000E+00  0.000E+00  1.03111E+00  1.000E+00  1.000E+00  6.799E-04  0.000E+00  0.000E+00



 UBDSV3 SAVING "           GW ET" ON UNIT   9 AT TIME STEP     1, STRESS PERIOD   1
 UBDSV3 SAVING "    UZF RECHARGE" ON UNIT   9 AT TIME STEP     1, STRESS PERIOD   1
 UBDSV3 SAVING " SURFACE LEAKAGE" ON UNIT   9 AT TIME STEP     1, STRESS PERIOD   1
 UBDSV3 SAVING "       HORT+DUNN" ON UNIT   9 AT TIME STEP     1, STRESS PERIOD   1
 UBDSV3 SAVING "  STORAGE CHANGE" ON UNIT   9 AT TIME STEP     1, STRESS PERIOD   1


UNSATURATED ZONE PACKAGE VOLUMETRIC BUDGET FOR  TIME STEP     1 STRESS PERIOD    1
  ------------------------------------------------------------------------------



     CUMULATIVE VOLUMES      L**3       RATES FOR THIS TIME STEP      L**3/T
     ------------------                 ------------------------

           IN:                                      IN:
           ---                                      ---
        INFILTRATION =       0.0000E+00          INFILTRATION =       0.0000E+00

          OUT:                                     OUT:
          ----                                     ----
              UZF ET =       0.0000E+00                UZF ET =       0.0000E+00
        UZF RECHARGE =       0.0000E+00          UZF RECHARGE =       0.0000E+00

            IN - OUT =       0.0000E+00              IN - OUT =       0.0000E+00

          STORAGE:                                 STORAGE:
          --------                                 --------
      STORAGE CHANGE =       0.0000E+00        STORAGE CHANGE =       0.0000E+00

 PERCENT DISCREPANCY IS DIFFERENCE BETWEEN IN-OUT MINUS CHANGE IN STORAGE
 DIVIDED BY THE AVERAGE OF IN AND OUT TIMES 100

 PERCENT DISCREPANCY =           0.00     PERCENT DISCREPANCY =           0.00







 HEAD WILL BE SAVED ON UNIT   37 AT END OF TIME STEP    1, STRESS PERIOD    1

 DRAWDOWN WILL BE SAVED ON UNIT   38 AT END OF TIME STEP    1, STRESS PERIOD    1
1
  VOLUMETRIC BUDGET FOR ENTIRE MODEL AT END OF TIME STEP    1, STRESS PERIOD   1
  ------------------------------------------------------------------------------

     CUMULATIVE VOLUMES      L**3       RATES FOR THIS TIME STEP      L**3/T
     ------------------                 ------------------------

           IN:                                      IN:
           ---                                      ---
             STORAGE =           0.0000               STORAGE =           0.0000
       CONSTANT HEAD =       2.1875E-02         CONSTANT HEAD =       2.1875E-02
      STREAM LEAKAGE =           0.0000        STREAM LEAKAGE =           0.0000
        UZF RECHARGE =           0.0000          UZF RECHARGE =           0.0000
               GW ET =           0.0000                 GW ET =           0.0000
     SURFACE LEAKAGE =           0.0000       SURFACE LEAKAGE =           0.0000

            TOTAL IN =       2.1875E-02              TOTAL IN =       2.1875E-02

          OUT:                                     OUT:
          ----                                     ----
             STORAGE =           0.0000               STORAGE =           0.0000
       CONSTANT HEAD =           0.0000         CONSTANT HEAD =           0.0000
      STREAM LEAKAGE =       2.1883E-02        STREAM LEAKAGE =       2.1883E-02
        UZF RECHARGE =           0.0000          UZF RECHARGE =           0.0000
               GW ET =           0.0000                 GW ET =           0.0000
     SURFACE LEAKAGE =           0.0000       SURFACE LEAKAGE =           0.0000

           TOTAL OUT =       2.1883E-02             TOTAL OUT =       2.1883E-02

            IN - OUT =      -7.9889E-06              IN - OUT =      -7.9889E-06

 PERCENT DISCREPANCY =          -0.04     PERCENT DISCREPANCY =          -0.04



 Drawdown Reference has been reset to the end of this time step



         TIME SUMMARY AT END OF TIME STEP    1 IN STRESS PERIOD    1
                    SECONDS     MINUTES      HOURS       DAYS        YEARS
                    -----------------------------------------------------------
   TIME STEP LENGTH  1.0000     1.66667E-02 2.77778E-04 1.15741E-05 3.16881E-08
 STRESS PERIOD TIME  1.0000     1.66667E-02 2.77778E-04 1.15741E-05 3.16881E-08
         TOTAL TIME  1.0000     1.66667E-02 2.77778E-04 1.15741E-05 3.16881E-08
1
1
                            STRESS PERIOD NO.    2, LENGTH =   2000.000    
                            -----------------------------------------------

                              NUMBER OF TIME STEPS =    25

                               MULTIPLIER FOR DELT =     1.300

                            INITIAL TIME STEP SIZE =  0.8514980    

 REUSING NON-PARAMETER SPECIFIED-HEAD DATA FROM LAST STRESS PERIOD


      1 TIME-VARIANT SPECIFIED-HEAD CELLS



 CLASSIFICATION & COUNT OF STREAM SEGMENTS BASED ON SOURCE OF INFLOW:

                HEADWATER     DIVERSION     RECEIVES TRIBUTARY FLOW
                ---------     ---------     -----------------------
                     1              0               1



                    INPUT DATA FOR EACH STREAM SEGMENT
 ---------------------------------------------------------------------------------------------

 SEGMENT    SEG.     INFLOW   OVERLAND   STREAM    STREAM   ICALC  OUTFLOW  DIVERSION PRIORITY
    NO.    LENGTH     RATE     RUNOFF      ET       PPT.    METH.  TO SEG.  FROM SEG.    NO.

      1  1.099E+03 1.000E+00 0.000E+00 0.000E+00 0.000E+00    0        2        0        0
      2  1.093E+03 0.000E+00 0.000E+00 0.000E+00 0.000E+00    0        0        0        0


         STREAMBED PROPERTIES AND STREAM DIMENSIONS

 SEGMENT     BED HYD. COND.      BED THICKNESS     ELEV.-TOP OF BED     WIDTH OF STREAM     DEPTH OF STREAM    STREAM ROUGHNESS
    No.     UPPER     LOWER     UPPER     LOWER     UPPER     LOWER     UPPER     LOWER     UPPER     LOWER   CHANNEL      BANK

     1  1.000E-05 1.000E-05 1.000E+00 1.000E+00 2.000E+00 1.000E+00 1.000E+00 1.000E+00 1.000E+00 1.000E+00
     2  1.000E-05 1.000E-05 1.000E+00 1.000E+00 1.000E+00 0.000E+00 1.000E+00 1.000E+00 1.000E+00 1.000E+00




  AREAL INFILTRATION RATE =   0.00000    

                  ET RATE =   0.00000    

      ET EXTINCTION DEPTH =   1.00000    

 EXTINCTION WATER CONTENT =  0.200000    
 
 SOLVING FOR HEAD 


     1 CALLS TO PCG ROUTINE FOR TIME STEP     1 IN STRESS PERIOD    2
     1 TOTAL ITERATIONS

 MAXIMUM HEAD CHANGE FOR EACH ITERATION (1 INDICATES THE FIRST INNER ITERATION):

    HEAD CHANGE    HEAD CHANGE    HEAD CHANGE    HEAD CHANGE    HEAD CHANGE 
   LAYER,ROW,COL  LAYER,ROW,COL  LAYER,ROW,COL  LAYER,ROW,COL  LAYER,ROW,COL
 ---------------------------------------------------------------------------
  1  0.3704E-08
   (  2, 16,  4)

 MAXIMUM RESIDUAL FOR EACH ITERATION (1 INDICATES THE FIRST INNER ITERATION):

    RESIDUAL       RESIDUAL       RESIDUAL       RESIDUAL       RESIDUAL    
   LAYER,ROW,COL  LAYER,ROW,COL  LAYER,ROW,COL  LAYER,ROW,COL  LAYER,ROW,COL
 ---------------------------------------------------------------------------
  1  0.2688E-04
   (  2,  2,  1)



 OUTPUT CONTROL FOR STRESS PERIOD    2   TIME STEP    1
    SAVE HEAD FOR ALL LAYERS
    SAVE DRAWDOWN FOR ALL LAYERS
    SAVE BUDGET
    PRINT BUDGET
 UBDSV1 SAVING "         STORAGE" ON UNIT   9 AT TIME STEP     1, STRESS PERIOD   2
 UBDSV2 SAVING "   CONSTANT HEAD" ON UNIT   9 AT TIME STEP     1, STRESS PERIOD   2
 UBDSV1 SAVING "FLOW RIGHT FACE " ON UNIT   9 AT TIME STEP     1, STRESS PERIOD   2
 UBDSV1 SAVING "FLOW FRONT FACE " ON UNIT   9 AT TIME STEP     1, STRESS PERIOD   2
 UBDSV1 SAVING "FLOW LOWER FACE " ON UNIT   9 AT TIME STEP     1, STRESS PERIOD   2
 UBDSV4 SAVING "  STREAM LEAKAGE" ON UNIT   9 AT TIME STEP     1, STRESS PERIOD   2



 STREAM LISTING     PERIOD      2   STEP        1

 LAYER ROW COL. STREAM  RCH.   FLOW INTO    STREAM     FLOW OUT OF   OVRLND.    DIRECT     STREAM      STREAM      STREAM     STREAM  STREAMBED   FLOW TO   CHNG. UNSAT. 
                SEG.NO.  NO.   STRM. RCH.    LOSS       STRM. RCH.   RUNOFF     PRECIP       ET         HEAD        DEPTH      WIDTH  CONDCTNC.   WAT. TAB.

   1    2    2     1     1    1.0000E+00 -8.9848E-06   1.0000E+00  0.000E+00  0.000E+00  0.000E+00  2.97978E+00  1.000E+00  1.000E+00  4.444E-04  0.000E+00  0.000E+00
   1    2    3     1     2    1.0000E+00 -3.0181E-05   1.0000E+00  0.000E+00  0.000E+00  0.000E+00  2.93755E+00  1.000E+00  1.000E+00  4.834E-04  0.000E+00  0.000E+00
   1    3    3     1     3    1.0000E+00 -1.1937E-04   1.0002E+00  0.000E+00  0.000E+00  0.000E+00  2.87283E+00  1.000E+00  1.000E+00  9.388E-04  0.000E+00  0.000E+00
   1    3    4     1     4    1.0002E+00 -8.9380E-05   1.0002E+00  0.000E+00  0.000E+00  0.000E+00  2.80883E+00  1.000E+00  1.000E+00  4.676E-04  0.000E+00  0.000E+00
   1    4    4     1     5    1.0002E+00 -2.4425E-04   1.0005E+00  0.000E+00  0.000E+00  0.000E+00  2.74411E+00  1.000E+00  1.000E+00  9.546E-04  0.000E+00  0.000E+00
   1    4    5     1     6    1.0005E+00 -1.4451E-04   1.0006E+00  0.000E+00  0.000E+00  0.000E+00  2.68011E+00  1.000E+00  1.000E+00  4.518E-04  0.000E+00  0.000E+00
   1    5    5     1     7    1.0006E+00 -3.7320E-04   1.0010E+00  0.000E+00  0.000E+00  0.000E+00  2.61540E+00  1.000E+00  1.000E+00  9.704E-04  0.000E+00  0.000E+00
   1    5    6     1     8    1.0010E+00 -1.9558E-04   1.0012E+00  0.000E+00  0.000E+00  0.000E+00  2.55140E+00  1.000E+00  1.000E+00  4.360E-04  0.000E+00  0.000E+00
   1    6    6     1     9    1.0012E+00 -5.0622E-04   1.0017E+00  0.000E+00  0.000E+00  0.000E+00  2.48668E+00  1.000E+00  1.000E+00  9.862E-04  0.000E+00  0.000E+00
   1    6    7     1    10    1.0017E+00 -2.4257E-04   1.0020E+00  0.000E+00  0.000E+00  0.000E+00  2.42268E+00  1.000E+00  1.000E+00  4.202E-04  0.000E+00  0.000E+00
   1    7    7     1    11    1.0020E+00 -6.4331E-04   1.0026E+00  0.000E+00  0.000E+00  0.000E+00  2.35796E+00  1.000E+00  1.000E+00  1.002E-03  0.000E+00  0.000E+00
   1    7    8     1    12    1.0026E+00 -2.8550E-04   1.0029E+00  0.000E+00  0.000E+00  0.000E+00  2.29396E+00  1.000E+00  1.000E+00  4.044E-04  0.000E+00  0.000E+00
   1    8    8     1    13    1.0029E+00 -7.8446E-04   1.0037E+00  0.000E+00  0.000E+00  0.000E+00  2.22924E+00  1.000E+00  1.000E+00  1.018E-03  0.000E+00  0.000E+00
   1    8    9     1    14    1.0037E+00 -3.2436E-04   1.0040E+00  0.000E+00  0.000E+00  0.000E+00  2.16524E+00  1.000E+00  1.000E+00  3.886E-04  0.000E+00  0.000E+00
   1    9    9     1    15    1.0040E+00 -9.2969E-04   1.0049E+00  0.000E+00  0.000E+00  0.000E+00  2.10052E+00  1.000E+00  1.000E+00  1.034E-03  0.000E+00  0.000E+00
   1    9   10     1    16    1.0049E+00 -3.5915E-04   1.0053E+00  0.000E+00  0.000E+00  0.000E+00  2.03652E+00  1.000E+00  1.000E+00  3.728E-04  0.000E+00  0.000E+00
   1   10   10     1    17    1.0053E+00 -2.1276E-04   1.0055E+00  0.000E+00  0.000E+00  0.000E+00  2.00978E+00  1.000E+00  1.000E+00  2.149E-04  0.000E+00  0.000E+00
   1   10   11     2     1    1.0055E+00 -4.6601E-04   1.0060E+00  0.000E+00  0.000E+00  0.000E+00  1.97911E+00  1.000E+00  1.000E+00  4.565E-04  0.000E+00  0.000E+00
   1   11   11     2     2    1.0060E+00 -1.0243E-03   1.0070E+00  0.000E+00  0.000E+00  0.000E+00  1.91502E+00  1.000E+00  1.000E+00  9.441E-04  0.000E+00  0.000E+00
   1   11   12     2     3    1.0070E+00 -5.2220E-04   1.0075E+00  0.000E+00  0.000E+00  0.000E+00  1.85102E+00  1.000E+00  1.000E+00  4.545E-04  0.000E+00  0.000E+00
   1   12   12     2     4    1.0075E+00 -1.1851E-03   1.0087E+00  0.000E+00  0.000E+00  0.000E+00  1.78557E+00  1.000E+00  1.000E+00  9.759E-04  0.000E+00  0.000E+00
   1   12   13     2     5    1.0087E+00 -5.4040E-04   1.0092E+00  0.000E+00  0.000E+00  0.000E+00  1.72157E+00  1.000E+00  1.000E+00  4.227E-04  0.000E+00  0.000E+00
   1   13   13     2     6    1.0092E+00 -1.3542E-03   1.0106E+00  0.000E+00  0.000E+00  0.000E+00  1.65611E+00  1.000E+00  1.000E+00  1.008E-03  0.000E+00  0.000E+00
   1   13   14     2     7    1.0106E+00 -5.5037E-04   1.0111E+00  0.000E+00  0.000E+00  0.000E+00  1.59211E+00  1.000E+00  1.000E+00  3.909E-04  0.000E+00  0.000E+00
   1   14   14     2     8    1.0111E+00 -1.5314E-03   1.0127E+00  0.000E+00  0.000E+00  0.000E+00  1.52666E+00  1.000E+00  1.000E+00  1.039E-03  0.000E+00  0.000E+00
   1   14   15     2     9    1.0127E+00 -5.5211E-04   1.0132E+00  0.000E+00  0.000E+00  0.000E+00  1.46266E+00  1.000E+00  1.000E+00  3.591E-04  0.000E+00  0.000E+00
   1   15   15     2    10    1.0132E+00 -1.7169E-03   1.0149E+00  0.000E+00  0.000E+00  0.000E+00  1.39720E+00  1.000E+00  1.000E+00  1.071E-03  0.000E+00  0.000E+00
   1   15   16     2    11    1.0149E+00 -5.4562E-04   1.0155E+00  0.000E+00  0.000E+00  0.000E+00  1.33320E+00  1.000E+00  1.000E+00  3.274E-04  0.000E+00  0.000E+00
   1   16   16     2    12    1.0155E+00 -1.9107E-03   1.0174E+00  0.000E+00  0.000E+00  0.000E+00  1.26775E+00  1.000E+00  1.000E+00  1.103E-03  0.000E+00  0.000E+00
   1   16   17     2    13    1.0174E+00 -5.3090E-04   1.0179E+00  0.000E+00  0.000E+00  0.000E+00  1.20375E+00  1.000E+00  1.000E+00  2.956E-04  0.000E+00  0.000E+00
   1   17   17     2    14    1.0179E+00 -2.1127E-03   1.0200E+00  0.000E+00  0.000E+00  0.000E+00  1.13829E+00  1.000E+00  1.000E+00  1.135E-03  0.000E+00  0.000E+00
   1   17   18     2    15    1.0200E+00 -5.0796E-04   1.0205E+00  0.000E+00  0.000E+00  0.000E+00  1.07429E+00  1.000E+00  1.000E+00  2.638E-04  0.000E+00  0.000E+00
   1   18   18     2    16    1.0205E+00 -1.3386E-03   1.0219E+00  0.000E+00  0.000E+00  0.000E+00  1.03111E+00  1.000E+00  1.000E+00  6.799E-04  0.000E+00  0.000E+00



 UBDSV3 SAVING "           GW ET" ON UNIT   9 AT TIME STEP     1, STRESS PERIOD   2
 UBDSV3 SAVING "    UZF RECHARGE" ON UNIT   9 AT TIME STEP     1, STRESS PERIOD   2
 UBDSV3 SAVING " SURFACE LEAKAGE" ON UNIT   9 AT TIME STEP     1, STRESS PERIOD   2
 UBDSV3 SAVING "       HORT+DUNN" ON UNIT   9 AT TIME STEP     1, STRESS PERIOD   2
 UBDSV3 SAVING "  STORAGE CHANGE" ON UNIT   9 AT TIME STEP     1, STRESS PERIOD   2


UNSATURATED ZONE PACKAGE VOLUMETRIC BUDGET FOR  TIME STEP     1 STRESS PERIOD    2
  ------------------------------------------------------------------------------



     CUMULATIVE VOLUMES      L**3       RATES FOR THIS TIME STEP      L**3/T
     ------------------                 ------------------------

           IN:                                      IN:
           ---                                      ---
        INFILTRATION =       0.0000E+00          INFILTRATION =       0.0000E+00

          OUT:                                     OUT:
          ----                                     ----
              UZF ET =       0.0000E+00                UZF ET =       0.0000E+00
        UZF RECHARGE =       0.0000E+00          UZF RECHARGE =       0.0000E+00

            IN - OUT =       0.0000E+00              IN - OUT =       0.0000E+00

          STORAGE:                                 STORAGE:
          --------                                 --------
      STORAGE CHANGE =       0.0000E+00        STORAGE CHANGE =       0.0000E+00

 PERCENT DISCREPANCY IS DIFFERENCE BETWEEN IN-OUT MINUS CHANGE IN STORAGE
 DIVIDED BY THE AVERAGE OF IN AND OUT TIMES 100

 PERCENT DISCREPANCY =           0.00     PERCENT DISCREPANCY =           0.00







 HEAD WILL BE SAVED ON UNIT   37 AT END OF TIME STEP    1, STRESS PERIOD    2

 DRAWDOWN WILL BE SAVED ON UNIT   38 AT END OF TIME STEP    1, STRESS PERIOD    2
1
  VOLUMETRIC BUDGET FOR ENTIRE MODEL AT END OF TIME STEP    1, STRESS PERIOD   2
  ------------------------------------------------------------------------------

     CUMULATIVE VOLUMES      L**3       RATES FOR THIS TIME STEP      L**3/T
     ------------------                 ------------------------

           IN:                                      IN:
           ---                                      ---
             STORAGE =       2.0301E-07               STORAGE =       2.3842E-07
       CONSTANT HEAD =       4.0502E-02         CONSTANT HEAD =       2.1875E-02
      STREAM LEAKAGE =           0.0000        STREAM LEAKAGE =           0.0000
        UZF RECHARGE =           0.0000          UZF RECHARGE =           0.0000
               GW ET =           0.0000                 GW ET =           0.0000
     SURFACE LEAKAGE =           0.0000       SURFACE LEAKAGE =           0.0000

            TOTAL IN =       4.0502E-02              TOTAL IN =       2.1876E-02

          OUT:                                     OUT:
          ----                                     ----
             STORAGE =       4.0603E-07               STORAGE =       4.7684E-07
       CONSTANT HEAD =           0.0000         CONSTANT HEAD =           0.0000
      STREAM LEAKAGE =       4.0516E-02        STREAM LEAKAGE =       2.1883E-02
        UZF RECHARGE =           0.0000          UZF RECHARGE =           0.0000
               GW ET =           0.0000                 GW ET =           0.0000
     SURFACE LEAKAGE =           0.0000       SURFACE LEAKAGE =           0.0000

           TOTAL OUT =       4.0517E-02             TOTAL OUT =       2.1883E-02

            IN - OUT =      -1.4696E-05              IN - OUT =      -7.8771E-06

 PERCENT DISCREPANCY =          -0.04     PERCENT DISCREPANCY =          -0.04






         TIME SUMMARY AT END OF TIME STEP    1 IN STRESS PERIOD    2
                    SECONDS     MINUTES      HOURS       DAYS        YEARS
                    -----------------------------------------------------------
   TIME STEP LENGTH 0.85150     1.41916E-02 2.36527E-04 9.85530E-06 2.69823E-08
 STRESS PERIOD TIME 0.85150     1.41916E-02 2.36527E-04 9.85530E-06 2.69823E-08
         TOTAL TIME  1.8515     3.08583E-02 5.14305E-04 2.14294E-05 5.86704E-08
1
 
 SOLVING FOR HEAD 
     1 CALLS TO PCG ROUTINE FOR TIME STEP     2 IN STRESS PERIOD    2
     1 TOTAL ITERATIONS

 MAXIMUM HEAD CHANGE FOR EACH ITERATION (1 INDICATES THE FIRST INNER ITERATION):

    HEAD CHANGE    HEAD CHANGE    HEAD CHANGE    HEAD CHANGE    HEAD CHANGE 
   LAYER,ROW,COL  LAYER,ROW,COL  LAYER,ROW,COL  LAYER,ROW,COL  LAYER,ROW,COL
 ---------------------------------------------------------------------------
  1 -0.2748E-08
   (  2, 16, 13)

 MAXIMUM RESIDUAL FOR EACH ITERATION (1 INDICATES THE FIRST INNER ITERATION):

    RESIDUAL       RESIDUAL       RESIDUAL       RESIDUAL       RESIDUAL    
   LAYER,ROW,COL  LAYER,ROW,COL  LAYER,ROW,COL  LAYER,ROW,COL  LAYER,ROW,COL
 ---------------------------------------------------------------------------
  1  0.2179E-04
   (  2,  2,  1)



 OUTPUT CONTROL FOR STRESS PERIOD    2   TIME STEP    2
    SAVE HEAD FOR ALL LAYERS
    SAVE DRAWDOWN FOR ALL LAYERS
    SAVE BUDGET
    PRINT BUDGET
 UBDSV1 SAVING "         STORAGE" ON UNIT   9 AT TIME STEP     2, STRESS PERIOD   2
 UBDSV2 SAVING "   CONSTANT HEAD" ON UNIT   9 AT TIME STEP     2, STRESS PERIOD   2
 UBDSV1 SAVING "FLOW RIGHT FACE " ON UNIT   9 AT TIME STEP     2, STRESS PERIOD   2
 UBDSV1 SAVING "FLOW FRONT FACE " ON UNIT   9 AT TIME STEP     2, STRESS PERIOD   2
 UBDSV1 SAVING "FLOW LOWER FACE " ON UNIT   9 AT TIME STEP     2, STRESS PERIOD   2
 UBDSV4 SAVING "  STREAM LEAKAGE" ON UNIT   9 AT TIME STEP     2, STRESS PERIOD   2



 STREAM LISTING     PERIOD      2   STEP        2

 LAYER ROW COL. STREAM  RCH.   FLOW INTO    STREAM     FLOW OUT OF   OVRLND.    DIRECT     STREAM      STREAM      STREAM     STREAM  STREAMBED   FLOW TO   CHNG. UNSAT. 
                SEG.NO.  NO.   STRM. RCH.    LOSS       STRM. RCH.   RUNOFF     PRECIP       ET         HEAD        DEPTH      WIDTH  CONDCTNC.   WAT. TAB.

   1    2    2     1     1    1.0000E+00 -8.9848E-06   1.0000E+00  0.000E+00  0.000E+00  0.000E+00  2.97978E+00  1.000E+00  1.000E+00  4.444E-04  0.000E+00  0.000E+00
   1    2    3     1     2    1.0000E+00 -3.0181E-05   1.0000E+00  0.000E+00  0.000E+00  0.000E+00  2.93755E+00  1.000E+00  1.000E+00  4.834E-04  0.000E+00  0.000E+00
   1    3    3     1     3    1.0000E+00 -1.1937E-04   1.0002E+00  0.000E+00  0.000E+00  0.000E+00  2.87283E+00  1.000E+00  1.000E+00  9.388E-04  0.000E+00  0.000E+00
   1    3    4     1     4    1.0002E+00 -8.9380E-05   1.0002E+00  0.000E+00  0.000E+00  0.000E+00  2.80883E+00  1.000E+00  1.000E+00  4.676E-04  0.000E+00  0.000E+00
   1    4    4     1     5    1.0002E+00 -2.4425E-04   1.0005E+00  0.000E+00  0.000E+00  0.000E+00  2.74411E+00  1.000E+00  1.000E+00  9.546E-04  0.000E+00  0.000E+00
   1    4    5     1     6    1.0005E+00 -1.4451E-04   1.0006E+00  0.000E+00  0.000E+00  0.000E+00  2.68011E+00  1.000E+00  1.000E+00  4.518E-04  0.000E+00  0.000E+00
   1    5    5     1     7    1.0006E+00 -3.7320E-04   1.0010E+00  0.000E+00  0.000E+00  0.000E+00  2.61540E+00  1.000E+00  1.000E+00  9.704E-04  0.000E+00  0.000E+00
   1    5    6     1     8    1.0010E+00 -1.9558E-04   1.0012E+00  0.000E+00  0.000E+00  0.000E+00  2.55140E+00  1.000E+00  1.000E+00  4.360E-04  0.000E+00  0.000E+00
   1    6    6     1     9    1.0012E+00 -5.0622E-04   1.0017E+00  0.000E+00  0.000E+00  0.000E+00  2.48668E+00  1.000E+00  1.000E+00  9.862E-04  0.000E+00  0.000E+00
   1    6    7     1    10    1.0017E+00 -2.4257E-04   1.0020E+00  0.000E+00  0.000E+00  0.000E+00  2.42268E+00  1.000E+00  1.000E+00  4.202E-04  0.000E+00  0.000E+00
   1    7    7     1    11    1.0020E+00 -6.4331E-04   1.0026E+00  0.000E+00  0.000E+00  0.000E+00  2.35796E+00  1.000E+00  1.000E+00  1.002E-03  0.000E+00  0.000E+00
   1    7    8     1    12    1.0026E+00 -2.8550E-04   1.0029E+00  0.000E+00  0.000E+00  0.000E+00  2.29396E+00  1.000E+00  1.000E+00  4.044E-04  0.000E+00  0.000E+00
   1    8    8     1    13    1.0029E+00 -7.8446E-04   1.0037E+00  0.000E+00  0.000E+00  0.000E+00  2.22924E+00  1.000E+00  1.000E+00  1.018E-03  0.000E+00  0.000E+00
   1    8    9     1    14    1.0037E+00 -3.2436E-04   1.0040E+00  0.000E+00  0.000E+00  0.000E+00  2.16524E+00  1.000E+00  1.000E+00  3.886E-04  0.000E+00  0.000E+00
   1    9    9     1    15    1.0040E+00 -9.2969E-04   1.0049E+00  0.000E+00  0.000E+00  0.000E+00  2.10052E+00  1.000E+00  1.000E+00  1.034E-03  0.000E+00  0.000E+00
   1    9   10     1    16    1.0049E+00 -3.5915E-04   1.0053E+00  0.000E+00  0.000E+00  0.000E+00  2.03652E+00  1.000E+00  1.000E+00  3.728E-04  0.000E+00  0.000E+00
   1   10   10     1    17    1.0053E+00 -2.1276E-04   1.0055E+00  0.000E+00  0.000E+00  0.000E+00  2.00978E+00  1.000E+00  1.000E+00  2.149E-04  0.000E+00  0.000E+00
   1   10   11     2     1    1.0055E+00 -4.6601E-04   1.0060E+00  0.000E+00  0.000E+00  0.000E+00  1.97911E+00  1.000E+00  1.000E+00  4.565E-04  0.000E+00  0.000E+00
   1   11   11     2     2    1.0060E+00 -1.0243E-03   1.0070E+00  0.000E+00  0.000E+00  0.000E+00  1.91502E+00  1.000E+00  1.000E+00  9.441E-04  0.000E+00  0.000E+00
   1   11   12     2     3    1.0070E+00 -5.2220E-04   1.0075E+00  0.000E+00  0.000E+00  0.000E+00  1.85102E+00  1.000E+00  1.000E+00  4.545E-04  0.000E+00  0.000E+00
   1   12   12     2     4    1.0075E+00 -1.1851E-03   1.0087E+00  0.000E+00  0.000E+00  0.000E+00  1.78557E+00  1.000E+00  1.000E+00  9.759E-04  0.000E+00  0.000E+00
   1   12   13     2     5    1.0087E+00 -5.4040E-04   1.0092E+00  0.000E+00  0.000E+00  0.000E+00  1.72157E+00  1.000E+00  1.000E+00  4.227E-04  0.000E+00  0.000E+00
   1   13   13     2     6    1.0092E+00 -1.3542E-03   1.0106E+00  0.000E+00  0.000E+00  0.000E+00  1.65611E+00  1.000E+00  1.000E+00  1.008E-03  0.000E+00  0.000E+00
   1   13   14     2     7    1.0106E+00 -5.5037E-04   1.0111E+00  0.000E+00  0.000E+00  0.000E+00  1.59211E+00  1.000E+00  1.000E+00  3.909E-04  0.000E+00  0.000E+00
   1   14   14     2     8    1.0111E+00 -1.5314E-03   1.0127E+00  0.000E+00  0.000E+00  0.000E+00  1.52666E+00  1.000E+00  1.000E+00  1.039E-03  0.000E+00  0.000E+00
   1   14   15     2     9    1.0127E+00 -5.5211E-04   1.0132E+00  0.000E+00  0.000E+00  0.000E+00  1.46266E+00  1.000E+00  1.000E+00  3.591E-04  0.000E+00  0.000E+00
   1   15   15     2    10    1.0132E+00 -1.7169E-03   1.0149E+00  0.000E+00  0.000E+00  0.000E+00  1.39720E+00  1.000E+00  1.000E+00  1.071E-03  0.000E+00  0.000E+00
   1   15   16     2    11    1.0149E+00 -5.4562E-04   1.0155E+00  0.000E+00  0.000E+00  0.000E+00  1.33320E+00  1.000E+00  1.000E+00  3.274E-04  0.000E+00  0.000E+00
   1   16   16     2    12    1.0155E+00 -1.9107E-03   1.0174E+00  0.000E+00  0.000E+00  0.000E+00  1.26775E+00  1.000E+00  1.000E+00  1.103E-03  0.000E+00  0.000E+00
   1   16   17     2    13    1.0174E+00 -5.3090E-04   1.0179E+00  0.000E+00  0.000E+00  0.000E+00  1.20375E+00  1.000E+00  1.000E+00  2.956E-04  0.000E+00  0.000E+00
   1   17   17     2    14    1.0179E+00 -2.1127E-03   1.0200E+00  0.000E+00  0.000E+00  0.000E+00  1.13829E+00  1.000E+00  1.000E+00  1.135E-03  0.000E+00  0.000E+00
   1   17   18     2    15    1.0200E+00 -5.0796E-04   1.0205E+00  0.000E+00  0.000E+00  0.000E+00  1.07429E+00  1.000E+00  1.000E+00  2.638E-04  0.000E+00  0.000E+00
   1   18   18     2    16    1.0205E+00 -1.3386E-03   1.0219E+00  0.000E+00  0.000E+00  0.000E+00  1.03111E+00  1.000E+00  1.000E+00  6.799E-04  0.000E+00  0.000E+00



 UBDSV3 SAVING "           GW ET" ON UNIT   9 AT TIME STEP     2, STRESS PERIOD   2
 UBDSV3 SAVING "    UZF RECHARGE" ON UNIT   9 AT TIME STEP     2, STRESS PERIOD   2
 UBDSV3 SAVING " SURFACE LEAKAGE" ON UNIT   9 AT TIME STEP     2, STRESS PERIOD   2
 UBDSV3 SAVING "       HORT+DUNN" ON UNIT   9 AT TIME STEP     2, STRESS PERIOD   2
 UBDSV3 SAVING "  STORAGE CHANGE" ON UNIT   9 AT TIME STEP     2, STRESS PERIOD   2


UNSATURATED ZONE PACKAGE VOLUMETRIC BUDGET FOR  TIME STEP     2 STRESS PERIOD    2
  ------------------------------------------------------------------------------



     CUMULATIVE VOLUMES      L**3       RATES FOR THIS TIME STEP      L**3/T
     ------------------                 ------------------------

           IN:                                      IN:
           ---                                      ---
        INFILTRATION =       0.0000E+00          INFILTRATION =       0.0000E+00

          OUT:                                     OUT:
          ----                                     ----
              UZF ET =       0.0000E+00                UZF ET =       0.0000E+00
        UZF RECHARGE =       0.0000E+00          UZF RECHARGE =       0.0000E+00

            IN - OUT =       0.0000E+00              IN - OUT =       0.0000E+00

          STORAGE:                                 STORAGE:
          --------                                 --------
      STORAGE CHANGE =       0.0000E+00        STORAGE CHANGE =       0.0000E+00

 PERCENT DISCREPANCY IS DIFFERENCE BETWEEN IN-OUT MINUS CHANGE IN STORAGE
 DIVIDED BY THE AVERAGE OF IN AND OUT TIMES 100

 PERCENT DISCREPANCY =           0.00     PERCENT DISCREPANCY =           0.00







 HEAD WILL BE SAVED ON UNIT   37 AT END OF TIME STEP    2, STRESS PERIOD    2

 DRAWDOWN WILL BE SAVED ON UNIT   38 AT END OF TIME STEP    2, STRESS PERIOD    2
1
  VOLUMETRIC BUDGET FOR ENTIRE MODEL AT END OF TIME STEP    2, STRESS PERIOD   2
  ------------------------------------------------------------------------------

     CUMULATIVE VOLUMES      L**3       RATES FOR THIS TIME STEP      L**3/T
     ------------------                 ------------------------

           IN:                                      IN:
           ---                                      ---
             STORAGE =       7.3085E-07               STORAGE =       4.7684E-07
       CONSTANT HEAD =       6.4717E-02         CONSTANT HEAD =       2.1876E-02
      STREAM LEAKAGE =           0.0000        STREAM LEAKAGE =           0.0000
        UZF RECHARGE =           0.0000          UZF RECHARGE =           0.0000
               GW ET =           0.0000                 GW ET =           0.0000
     SURFACE LEAKAGE =           0.0000       SURFACE LEAKAGE =           0.0000

            TOTAL IN =       6.4718E-02              TOTAL IN =       2.1876E-02

          OUT:                                     OUT:
          ----                                     ----
             STORAGE =       4.0603E-07               STORAGE =           0.0000
       CONSTANT HEAD =           0.0000         CONSTANT HEAD =           0.0000
      STREAM LEAKAGE =       6.4739E-02        STREAM LEAKAGE =       2.1883E-02
        UZF RECHARGE =           0.0000          UZF RECHARGE =           0.0000
               GW ET =           0.0000                 GW ET =           0.0000
     SURFACE LEAKAGE =           0.0000       SURFACE LEAKAGE =           0.0000

           TOTAL OUT =       6.4740E-02             TOTAL OUT =       2.1883E-02

            IN - OUT =      -2.1935E-05              IN - OUT =      -6.5435E-06

 PERCENT DISCREPANCY =          -0.03     PERCENT DISCREPANCY =          -0.03






         TIME SUMMARY AT END OF TIME STEP    2 IN STRESS PERIOD    2
                    SECONDS     MINUTES      HOURS       DAYS        YEARS
                    -----------------------------------------------------------
   TIME STEP LENGTH  1.1069     1.84491E-02 3.07485E-04 1.28119E-05 3.50770E-08
 STRESS PERIOD TIME  1.9584     3.26408E-02 5.44013E-04 2.26672E-05 6.20594E-08
         TOTAL TIME  2.9584     4.93074E-02 8.21790E-04 3.42413E-05 9.37475E-08
1
 
 SOLVING FOR HEAD 
     1 CALLS TO PCG ROUTINE FOR TIME STEP     3 IN STRESS PERIOD    2
     1 TOTAL ITERATIONS

 MAXIMUM HEAD CHANGE FOR EACH ITERATION (1 INDICATES THE FIRST INNER ITERATION):

    HEAD CHANGE    HEAD CHANGE    HEAD CHANGE    HEAD CHANGE    HEAD CHANGE 
   LAYER,ROW,COL  LAYER,ROW,COL  LAYER,ROW,COL  LAYER,ROW,COL  LAYER,ROW,COL
 ---------------------------------------------------------------------------
  1 -0.1475E-08
   (  2, 11, 15)

 MAXIMUM RESIDUAL FOR EACH ITERATION (1 INDICATES THE FIRST INNER ITERATION):

    RESIDUAL       RESIDUAL       RESIDUAL       RESIDUAL       RESIDUAL    
   LAYER,ROW,COL  LAYER,ROW,COL  LAYER,ROW,COL  LAYER,ROW,COL  LAYER,ROW,COL
 ---------------------------------------------------------------------------
  1  0.1760E-04
   (  2,  2,  1)



 OUTPUT CONTROL FOR STRESS PERIOD    2   TIME STEP    3
    SAVE HEAD FOR ALL LAYERS
    SAVE DRAWDOWN FOR ALL LAYERS
    SAVE BUDGET
    PRINT BUDGET
 UBDSV1 SAVING "         STORAGE" ON UNIT   9 AT TIME STEP     3, STRESS PERIOD   2
 UBDSV2 SAVING "   CONSTANT HEAD" ON UNIT   9 AT TIME STEP     3, STRESS PERIOD   2
 UBDSV1 SAVING "FLOW RIGHT FACE " ON UNIT   9 AT TIME STEP     3, STRESS PERIOD   2
 UBDSV1 SAVING "FLOW FRONT FACE " ON UNIT   9 AT TIME STEP     3, STRESS PERIOD   2
 UBDSV1 SAVING "FLOW LOWER FACE " ON UNIT   9 AT TIME STEP     3, STRESS PERIOD   2
 UBDSV4 SAVING "  STREAM LEAKAGE" ON UNIT   9 AT TIME STEP     3, STRESS PERIOD   2



 STREAM LISTING     PERIOD      2   STEP        3

 LAYER ROW COL. STREAM  RCH.   FLOW INTO    STREAM     FLOW OUT OF   OVRLND.    DIRECT     STREAM      STREAM      STREAM     STREAM  STREAMBED   FLOW TO   CHNG. UNSAT. 
                SEG.NO.  NO.   STRM. RCH.    LOSS       STRM. RCH.   RUNOFF     PRECIP       ET         HEAD        DEPTH      WIDTH  CONDCTNC.   WAT. TAB.

   1    2    2     1     1    1.0000E+00 -8.9848E-06   1.0000E+00  0.000E+00  0.000E+00  0.000E+00  2.97978E+00  1.000E+00  1.000E+00  4.444E-04  0.000E+00  0.000E+00
   1    2    3     1     2    1.0000E+00 -3.0181E-05   1.0000E+00  0.000E+00  0.000E+00  0.000E+00  2.93755E+00  1.000E+00  1.000E+00  4.834E-04  0.000E+00  0.000E+00
   1    3    3     1     3    1.0000E+00 -1.1937E-04   1.0002E+00  0.000E+00  0.000E+00  0.000E+00  2.87283E+00  1.000E+00  1.000E+00  9.388E-04  0.000E+00  0.000E+00
   1    3    4     1     4    1.0002E+00 -8.9380E-05   1.0002E+00  0.000E+00  0.000E+00  0.000E+00  2.80883E+00  1.000E+00  1.000E+00  4.676E-04  0.000E+00  0.000E+00
   1    4    4     1     5    1.0002E+00 -2.4425E-04   1.0005E+00  0.000E+00  0.000E+00  0.000E+00  2.74411E+00  1.000E+00  1.000E+00  9.546E-04  0.000E+00  0.000E+00
   1    4    5     1     6    1.0005E+00 -1.4451E-04   1.0006E+00  0.000E+00  0.000E+00  0.000E+00  2.68011E+00  1.000E+00  1.000E+00  4.518E-04  0.000E+00  0.000E+00
   1    5    5     1     7    1.0006E+00 -3.7320E-04   1.0010E+00  0.000E+00  0.000E+00  0.000E+00  2.61540E+00  1.000E+00  1.000E+00  9.704E-04  0.000E+00  0.000E+00
   1    5    6     1     8    1.0010E+00 -1.9558E-04   1.0012E+00  0.000E+00  0.000E+00  0.000E+00  2.55140E+00  1.000E+00  1.000E+00  4.360E-04  0.000E+00  0.000E+00
   1    6    6     1     9    1.0012E+00 -5.0622E-04   1.0017E+00  0.000E+00  0.000E+00  0.000E+00  2.48668E+00  1.000E+00  1.000E+00  9.862E-04  0.000E+00  0.000E+00
   1    6    7     1    10    1.0017E+00 -2.4257E-04   1.0020E+00  0.000E+00  0.000E+00  0.000E+00  2.42268E+00  1.000E+00  1.000E+00  4.202E-04  0.000E+00  0.000E+00
   1    7    7     1    11    1.0020E+00 -6.4331E-04   1.0026E+00  0.000E+00  0.000E+00  0.000E+00  2.35796E+00  1.000E+00  1.000E+00  1.002E-03  0.000E+00  0.000E+00
   1    7    8     1    12    1.0026E+00 -2.8550E-04   1.0029E+00  0.000E+00  0.000E+00  0.000E+00  2.29396E+00  1.000E+00  1.000E+00  4.044E-04  0.000E+00  0.000E+00
   1    8    8     1    13    1.0029E+00 -7.8446E-04   1.0037E+00  0.000E+00  0.000E+00  0.000E+00  2.22924E+00  1.000E+00  1.000E+00  1.018E-03  0.000E+00  0.000E+00
   1    8    9     1    14    1.0037E+00 -3.2436E-04   1.0040E+00  0.000E+00  0.000E+00  0.000E+00  2.16524E+00  1.000E+00  1.000E+00  3.886E-04  0.000E+00  0.000E+00
   1    9    9     1    15    1.0040E+00 -9.2969E-04   1.0049E+00  0.000E+00  0.000E+00  0.000E+00  2.10052E+00  1.000E+00  1.000E+00  1.034E-03  0.000E+00  0.000E+00
   1    9   10     1    16    1.0049E+00 -3.5915E-04   1.0053E+00  0.000E+00  0.000E+00  0.000E+00  2.03652E+00  1.000E+00  1.000E+00  3.728E-04  0.000E+00  0.000E+00
   1   10   10     1    17    1.0053E+00 -2.1276E-04   1.0055E+00  0.000E+00  0.000E+00  0.000E+00  2.00978E+00  1.000E+00  1.000E+00  2.149E-04  0.000E+00  0.000E+00
   1   10   11     2     1    1.0055E+00 -4.6601E-04   1.0060E+00  0.000E+00  0.000E+00  0.000E+00  1.97911E+00  1.000E+00  1.000E+00  4.565E-04  0.000E+00  0.000E+00
   1   11   11     2     2    1.0060E+00 -1.0243E-03   1.0070E+00  0.000E+00  0.000E+00  0.000E+00  1.91502E+00  1.000E+00  1.000E+00  9.441E-04  0.000E+00  0.000E+00
   1   11   12     2     3    1.0070E+00 -5.2220E-04   1.0075E+00  0.000E+00  0.000E+00  0.000E+00  1.85102E+00  1.000E+00  1.000E+00  4.545E-04  0.000E+00  0.000E+00
   1   12   12     2     4    1.0075E+00 -1.1851E-03   1.0087E+00  0.000E+00  0.000E+00  0.000E+00  1.78557E+00  1.000E+00  1.000E+00  9.759E-04  0.000E+00  0.000E+00
   1   12   13     2     5    1.0087E+00 -5.4040E-04   1.0092E+00  0.000E+00  0.000E+00  0.000E+00  1.72157E+00  1.000E+00  1.000E+00  4.227E-04  0.000E+00  0.000E+00
   1   13   13     2     6    1.0092E+00 -1.3542E-03   1.0106E+00  0.000E+00  0.000E+00  0.000E+00  1.65611E+00  1.000E+00  1.000E+00  1.008E-03  0.000E+00  0.000E+00
   1   13   14     2     7    1.0106E+00 -5.5037E-04   1.0111E+00  0.000E+00  0.000E+00  0.000E+00  1.59211E+00  1.000E+00  1.000E+00  3.909E-04  0.000E+00  0.000E+00
   1   14   14     2     8    1.0111E+00 -1.5314E-03   1.0127E+00  0.000E+00  0.000E+00  0.000E+00  1.52666E+00  1.000E+00  1.000E+00  1.039E-03  0.000E+00  0.000E+00
   1   14   15     2     9    1.0127E+00 -5.5211E-04   1.0132E+00  0.000E+00  0.000E+00  0.000E+00  1.46266E+00  1.000E+00  1.000E+00  3.591E-04  0.000E+00  0.000E+00
   1   15   15     2    10    1.0132E+00 -1.7169E-03   1.0149E+00  0.000E+00  0.000E+00  0.000E+00  1.39720E+00  1.000E+00  1.000E+00  1.071E-03  0.000E+00  0.000E+00
   1   15   16     2    11    1.0149E+00 -5.4562E-04   1.0155E+00  0.000E+00  0.000E+00  0.000E+00  1.33320E+00  1.000E+00  1.000E+00  3.274E-04  0.000E+00  0.000E+00
   1   16   16     2    12    1.0155E+00 -1.9107E-03   1.0174E+00  0.000E+00  0.000E+00  0.000E+00  1.26775E+00  1.000E+00  1.000E+00  1.103E-03  0.000E+00  0.000E+00
   1   16   17     2    13    1.0174E+00 -5.3090E-04   1.0179E+00  0.000E+00  0.000E+00  0.000E+00  1.20375E+00  1.000E+00  1.000E+00  2.956E-04  0.000E+00  0.000E+00
   1   17   17     2    14    1.0179E+00 -2.1127E-03   1.0200E+00  0.000E+00  0.000E+00  0.000E+00  1.13829E+00  1.000E+00  1.000E+00  1.135E-03  0.000E+00  0.000E+00
   1   17   18     2    15    1.0200E+00 -5.0796E-04   1.0205E+00  0.000E+00  0.000E+00  0.000E+00  1.07429E+00  1.000E+00  1.000E+00  2.638E-04  0.000E+00  0.000E+00
   1   18   18     2    16    1.0205E+00 -1.3386E-03   1.0219E+00  0.000E+00  0.000E+00  0.000E+00  1.03111E+00  1.000E+00  1.000E+00  6.799E-04  0.000E+00  0.000E+00



 UBDSV3 SAVING "           GW ET" ON UNIT   9 AT TIME STEP     3, STRESS PERIOD   2
 UBDSV3 SAVING "    UZF RECHARGE" ON UNIT   9 AT TIME STEP     3, STRESS PERIOD   2
 UBDSV3 SAVING " SURFACE LEAKAGE" ON UNIT   9 AT TIME STEP     3, STRESS PERIOD   2
 UBDSV3 SAVING "       HORT+DUNN" ON UNIT   9 AT TIME STEP     3, STRESS PERIOD   2
 UBDSV3 SAVING "  STORAGE CHANGE" ON UNIT   9 AT TIME STEP     3, STRESS PERIOD   2


UNSATURATED ZONE PACKAGE VOLUMETRIC BUDGET FOR  TIME STEP     3 STRESS PERIOD    2
  ------------------------------------------------------------------------------



     CUMULATIVE VOLUMES      L**3       RATES FOR THIS TIME STEP      L**3/T
     ------------------                 ------------------------

           IN:                                      IN:
           ---                                      ---
        INFILTRATION =       0.0000E+00          INFILTRATION =       0.0000E+00

          OUT:                                     OUT:
          ----                                     ----
              UZF ET =       0.0000E+00                UZF ET =       0.0000E+00
        UZF RECHARGE =       0.0000E+00          UZF RECHARGE =       0.0000E+00

            IN - OUT =       0.0000E+00              IN - OUT =       0.0000E+00

          STORAGE:                                 STORAGE:
          --------                                 --------
      STORAGE CHANGE =       0.0000E+00        STORAGE CHANGE =       0.0000E+00

 PERCENT DISCREPANCY IS DIFFERENCE BETWEEN IN-OUT MINUS CHANGE IN STORAGE
 DIVIDED BY THE AVERAGE OF IN AND OUT TIMES 100

 PERCENT DISCREPANCY =           0.00     PERCENT DISCREPANCY =           0.00







 HEAD WILL BE SAVED ON UNIT   37 AT END OF TIME STEP    3, STRESS PERIOD    2

 DRAWDOWN WILL BE SAVED ON UNIT   38 AT END OF TIME STEP    3, STRESS PERIOD    2
1
  VOLUMETRIC BUDGET FOR ENTIRE MODEL AT END OF TIME STEP    3, STRESS PERIOD   2
  ------------------------------------------------------------------------------

     CUMULATIVE VOLUMES      L**3       RATES FOR THIS TIME STEP      L**3/T
     ------------------                 ------------------------

           IN:                                      IN:
           ---                                      ---
             STORAGE =       7.3085E-07               STORAGE =           0.0000
       CONSTANT HEAD =       9.6198E-02         CONSTANT HEAD =       2.1876E-02
      STREAM LEAKAGE =           0.0000        STREAM LEAKAGE =           0.0000
        UZF RECHARGE =           0.0000          UZF RECHARGE =           0.0000
               GW ET =           0.0000                 GW ET =           0.0000
     SURFACE LEAKAGE =           0.0000       SURFACE LEAKAGE =           0.0000

            TOTAL IN =       9.6199E-02              TOTAL IN =       2.1876E-02

          OUT:                                     OUT:
          ----                                     ----
             STORAGE =       4.0603E-07               STORAGE =           0.0000
       CONSTANT HEAD =           0.0000         CONSTANT HEAD =           0.0000
      STREAM LEAKAGE =       9.6230E-02        STREAM LEAKAGE =       2.1883E-02
        UZF RECHARGE =           0.0000          UZF RECHARGE =           0.0000
               GW ET =           0.0000                 GW ET =           0.0000
     SURFACE LEAKAGE =           0.0000       SURFACE LEAKAGE =           0.0000

           TOTAL OUT =       9.6230E-02             TOTAL OUT =       2.1883E-02

            IN - OUT =      -3.1300E-05              IN - OUT =      -6.5081E-06

 PERCENT DISCREPANCY =          -0.03     PERCENT DISCREPANCY =          -0.03






         TIME SUMMARY AT END OF TIME STEP    3 IN STRESS PERIOD    2
                    SECONDS     MINUTES      HOURS       DAYS        YEARS
                    -----------------------------------------------------------
   TIME STEP LENGTH  1.4390     2.39839E-02 3.99731E-04 1.66555E-05 4.56002E-08
 STRESS PERIOD TIME  3.3975     5.66246E-02 9.43744E-04 3.93227E-05 1.07660E-07
         TOTAL TIME  4.3975     7.32913E-02 1.22152E-03 5.08967E-05 1.39348E-07
1
 
 SOLVING FOR HEAD 
     1 CALLS TO PCG ROUTINE FOR TIME STEP     4 IN STRESS PERIOD    2
     1 TOTAL ITERATIONS

 MAXIMUM HEAD CHANGE FOR EACH ITERATION (1 INDICATES THE FIRST INNER ITERATION):

    HEAD CHANGE    HEAD CHANGE    HEAD CHANGE    HEAD CHANGE    HEAD CHANGE 
   LAYER,ROW,COL  LAYER,ROW,COL  LAYER,ROW,COL  LAYER,ROW,COL  LAYER,ROW,COL
 ---------------------------------------------------------------------------
  1 -0.2077E-08
   (  2,  6, 17)

 MAXIMUM RESIDUAL FOR EACH ITERATION (1 INDICATES THE FIRST INNER ITERATION):

    RESIDUAL       RESIDUAL       RESIDUAL       RESIDUAL       RESIDUAL    
   LAYER,ROW,COL  LAYER,ROW,COL  LAYER,ROW,COL  LAYER,ROW,COL  LAYER,ROW,COL
 ---------------------------------------------------------------------------
  1  0.1487E-04
   (  2,  2,  1)



 OUTPUT CONTROL FOR STRESS PERIOD    2   TIME STEP    4
    SAVE HEAD FOR ALL LAYERS
    SAVE DRAWDOWN FOR ALL LAYERS
    SAVE BUDGET
    PRINT BUDGET
 UBDSV1 SAVING "         STORAGE" ON UNIT   9 AT TIME STEP     4, STRESS PERIOD   2
 UBDSV2 SAVING "   CONSTANT HEAD" ON UNIT   9 AT TIME STEP     4, STRESS PERIOD   2
 UBDSV1 SAVING "FLOW RIGHT FACE " ON UNIT   9 AT TIME STEP     4, STRESS PERIOD   2
 UBDSV1 SAVING "FLOW FRONT FACE " ON UNIT   9 AT TIME STEP     4, STRESS PERIOD   2
 UBDSV1 SAVING "FLOW LOWER FACE " ON UNIT   9 AT TIME STEP     4, STRESS PERIOD   2
 UBDSV4 SAVING "  STREAM LEAKAGE" ON UNIT   9 AT TIME STEP     4, STRESS PERIOD   2



 STREAM LISTING     PERIOD      2   STEP        4

 LAYER ROW COL. STREAM  RCH.   FLOW INTO    STREAM     FLOW OUT OF   OVRLND.    DIRECT     STREAM      STREAM      STREAM     STREAM  STREAMBED   FLOW TO   CHNG. UNSAT. 
                SEG.NO.  NO.   STRM. RCH.    LOSS       STRM. RCH.   RUNOFF     PRECIP       ET         HEAD        DEPTH      WIDTH  CONDCTNC.   WAT. TAB.

   1    2    2     1     1    1.0000E+00 -8.9848E-06   1.0000E+00  0.000E+00  0.000E+00  0.000E+00  2.97978E+00  1.000E+00  1.000E+00  4.444E-04  0.000E+00  0.000E+00
   1    2    3     1     2    1.0000E+00 -3.0181E-05   1.0000E+00  0.000E+00  0.000E+00  0.000E+00  2.93755E+00  1.000E+00  1.000E+00  4.834E-04  0.000E+00  0.000E+00
   1    3    3     1     3    1.0000E+00 -1.1937E-04   1.0002E+00  0.000E+00  0.000E+00  0.000E+00  2.87283E+00  1.000E+00  1.000E+00  9.388E-04  0.000E+00  0.000E+00
   1    3    4     1     4    1.0002E+00 -8.9380E-05   1.0002E+00  0.000E+00  0.000E+00  0.000E+00  2.80883E+00  1.000E+00  1.000E+00  4.676E-04  0.000E+00  0.000E+00
   1    4    4     1     5    1.0002E+00 -2.4425E-04   1.0005E+00  0.000E+00  0.000E+00  0.000E+00  2.74411E+00  1.000E+00  1.000E+00  9.546E-04  0.000E+00  0.000E+00
   1    4    5     1     6    1.0005E+00 -1.4451E-04   1.0006E+00  0.000E+00  0.000E+00  0.000E+00  2.68011E+00  1.000E+00  1.000E+00  4.518E-04  0.000E+00  0.000E+00
   1    5    5     1     7    1.0006E+00 -3.7320E-04   1.0010E+00  0.000E+00  0.000E+00  0.000E+00  2.61540E+00  1.000E+00  1.000E+00  9.704E-04  0.000E+00  0.000E+00
   1    5    6     1     8    1.0010E+00 -1.9558E-04   1.0012E+00  0.000E+00  0.000E+00  0.000E+00  2.55140E+00  1.000E+00  1.000E+00  4.360E-04  0.000E+00  0.000E+00
   1    6    6     1     9    1.0012E+00 -5.0622E-04   1.0017E+00  0.000E+00  0.000E+00  0.000E+00  2.48668E+00  1.000E+00  1.000E+00  9.862E-04  0.000E+00  0.000E+00
   1    6    7     1    10    1.0017E+00 -2.4257E-04   1.0020E+00  0.000E+00  0.000E+00  0.000E+00  2.42268E+00  1.000E+00  1.000E+00  4.202E-04  0.000E+00  0.000E+00
   1    7    7     1    11    1.0020E+00 -6.4331E-04   1.0026E+00  0.000E+00  0.000E+00  0.000E+00  2.35796E+00  1.000E+00  1.000E+00  1.002E-03  0.000E+00  0.000E+00
   1    7    8     1    12    1.0026E+00 -2.8550E-04   1.0029E+00  0.000E+00  0.000E+00  0.000E+00  2.29396E+00  1.000E+00  1.000E+00  4.044E-04  0.000E+00  0.000E+00
   1    8    8     1    13    1.0029E+00 -7.8446E-04   1.0037E+00  0.000E+00  0.000E+00  0.000E+00  2.22924E+00  1.000E+00  1.000E+00  1.018E-03  0.000E+00  0.000E+00
   1    8    9     1    14    1.0037E+00 -3.2436E-04   1.0040E+00  0.000E+00  0.000E+00  0.000E+00  2.16524E+00  1.000E+00  1.000E+00  3.886E-04  0.000E+00  0.000E+00
   1    9    9     1    15    1.0040E+00 -9.2969E-04   1.0049E+00  0.000E+00  0.000E+00  0.000E+00  2.10052E+00  1.000E+00  1.000E+00  1.034E-03  0.000E+00  0.000E+00
   1    9   10     1    16    1.0049E+00 -3.5915E-04   1.0053E+00  0.000E+00  0.000E+00  0.000E+00  2.03652E+00  1.000E+00  1.000E+00  3.728E-04  0.000E+00  0.000E+00
   1   10   10     1    17    1.0053E+00 -2.1276E-04   1.0055E+00  0.000E+00  0.000E+00  0.000E+00  2.00978E+00  1.000E+00  1.000E+00  2.149E-04  0.000E+00  0.000E+00
   1   10   11     2     1    1.0055E+00 -4.6601E-04   1.0060E+00  0.000E+00  0.000E+00  0.000E+00  1.97911E+00  1.000E+00  1.000E+00  4.565E-04  0.000E+00  0.000E+00
   1   11   11     2     2    1.0060E+00 -1.0243E-03   1.0070E+00  0.000E+00  0.000E+00  0.000E+00  1.91502E+00  1.000E+00  1.000E+00  9.441E-04  0.000E+00  0.000E+00
   1   11   12     2     3    1.0070E+00 -5.2220E-04   1.0075E+00  0.000E+00  0.000E+00  0.000E+00  1.85102E+00  1.000E+00  1.000E+00  4.545E-04  0.000E+00  0.000E+00
   1   12   12     2     4    1.0075E+00 -1.1851E-03   1.0087E+00  0.000E+00  0.000E+00  0.000E+00  1.78557E+00  1.000E+00  1.000E+00  9.759E-04  0.000E+00  0.000E+00
   1   12   13     2     5    1.0087E+00 -5.4040E-04   1.0092E+00  0.000E+00  0.000E+00  0.000E+00  1.72157E+00  1.000E+00  1.000E+00  4.227E-04  0.000E+00  0.000E+00
   1   13   13     2     6    1.0092E+00 -1.3542E-03   1.0106E+00  0.000E+00  0.000E+00  0.000E+00  1.65611E+00  1.000E+00  1.000E+00  1.008E-03  0.000E+00  0.000E+00
   1   13   14     2     7    1.0106E+00 -5.5037E-04   1.0111E+00  0.000E+00  0.000E+00  0.000E+00  1.59211E+00  1.000E+00  1.000E+00  3.909E-04  0.000E+00  0.000E+00
   1   14   14     2     8    1.0111E+00 -1.5314E-03   1.0127E+00  0.000E+00  0.000E+00  0.000E+00  1.52666E+00  1.000E+00  1.000E+00  1.039E-03  0.000E+00  0.000E+00
   1   14   15     2     9    1.0127E+00 -5.5211E-04   1.0132E+00  0.000E+00  0.000E+00  0.000E+00  1.46266E+00  1.000E+00  1.000E+00  3.591E-04  0.000E+00  0.000E+00
   1   15   15     2    10    1.0132E+00 -1.7169E-03   1.0149E+00  0.000E+00  0.000E+00  0.000E+00  1.39720E+00  1.000E+00  1.000E+00  1.071E-03  0.000E+00  0.000E+00
   1   15   16     2    11    1.0149E+00 -5.4562E-04   1.0155E+00  0.000E+00  0.000E+00  0.000E+00  1.33320E+00  1.000E+00  1.000E+00  3.274E-04  0.000E+00  0.000E+00
   1   16   16     2    12    1.0155E+00 -1.9107E-03   1.0174E+00  0.000E+00  0.000E+00  0.000E+00  1.26775E+00  1.000E+00  1.000E+00  1.103E-03  0.000E+00  0.000E+00
   1   16   17     2    13    1.0174E+00 -5.3090E-04   1.0179E+00  0.000E+00  0.000E+00  0.000E+00  1.20375E+00  1.000E+00  1.000E+00  2.956E-04  0.000E+00  0.000E+00
   1   17   17     2    14    1.0179E+00 -2.1127E-03   1.0200E+00  0.000E+00  0.000E+00  0.000E+00  1.13829E+00  1.000E+00  1.000E+00  1.135E-03  0.000E+00  0.000E+00
   1   17   18     2    15    1.0200E+00 -5.0796E-04   1.0205E+00  0.000E+00  0.000E+00  0.000E+00  1.07429E+00  1.000E+00  1.000E+00  2.638E-04  0.000E+00  0.000E+00
   1   18   18     2    16    1.0205E+00 -1.3386E-03   1.0219E+00  0.000E+00  0.000E+00  0.000E+00  1.03111E+00  1.000E+00  1.000E+00  6.799E-04  0.000E+00  0.000E+00



 UBDSV3 SAVING "           GW ET" ON UNIT   9 AT TIME STEP     4, STRESS PERIOD   2
 UBDSV3 SAVING "    UZF RECHARGE" ON UNIT   9 AT TIME STEP     4, STRESS PERIOD   2
 UBDSV3 SAVING " SURFACE LEAKAGE" ON UNIT   9 AT TIME STEP     4, STRESS PERIOD   2
 UBDSV3 SAVING "       HORT+DUNN" ON UNIT   9 AT TIME STEP     4, STRESS PERIOD   2
 UBDSV3 SAVING "  STORAGE CHANGE" ON UNIT   9 AT TIME STEP     4, STRESS PERIOD   2


UNSATURATED ZONE PACKAGE VOLUMETRIC BUDGET FOR  TIME STEP     4 STRESS PERIOD    2
  ------------------------------------------------------------------------------



     CUMULATIVE VOLUMES      L**3       RATES FOR THIS TIME STEP      L**3/T
     ------------------                 ------------------------

           IN:                                      IN:
           ---                                      ---
        INFILTRATION =       0.0000E+00          INFILTRATION =       0.0000E+00

          OUT:                                     OUT:
          ----                                     ----
              UZF ET =       0.0000E+00                UZF ET =       0.0000E+00
        UZF RECHARGE =       0.0000E+00          UZF RECHARGE =       0.0000E+00

            IN - OUT =       0.0000E+00              IN - OUT =       0.0000E+00

          STORAGE:                                 STORAGE:
          --------                                 --------
      STORAGE CHANGE =       0.0000E+00        STORAGE CHANGE =       0.0000E+00

 PERCENT DISCREPANCY IS DIFFERENCE BETWEEN IN-OUT MINUS CHANGE IN STORAGE
 DIVIDED BY THE AVERAGE OF IN AND OUT TIMES 100

 PERCENT DISCREPANCY =           0.00     PERCENT DISCREPANCY =           0.00







 HEAD WILL BE SAVED ON UNIT   37 AT END OF TIME STEP    4, STRESS PERIOD    2

 DRAWDOWN WILL BE SAVED ON UNIT   38 AT END OF TIME STEP    4, STRESS PERIOD    2
1
  VOLUMETRIC BUDGET FOR ENTIRE MODEL AT END OF TIME STEP    4, STRESS PERIOD   2
  ------------------------------------------------------------------------------

     CUMULATIVE VOLUMES      L**3       RATES FOR THIS TIME STEP      L**3/T
     ------------------                 ------------------------

           IN:                                      IN:
           ---                                      ---
             STORAGE =       1.1769E-06               STORAGE =       2.3842E-07
       CONSTANT HEAD =           0.1371         CONSTANT HEAD =       2.1877E-02
      STREAM LEAKAGE =           0.0000        STREAM LEAKAGE =           0.0000
        UZF RECHARGE =           0.0000          UZF RECHARGE =           0.0000
               GW ET =           0.0000                 GW ET =           0.0000
     SURFACE LEAKAGE =           0.0000       SURFACE LEAKAGE =           0.0000

            TOTAL IN =           0.1371              TOTAL IN =       2.1877E-02

          OUT:                                     OUT:
          ----                                     ----
             STORAGE =       4.0603E-07               STORAGE =           0.0000
       CONSTANT HEAD =           0.0000         CONSTANT HEAD =           0.0000
      STREAM LEAKAGE =           0.1372        STREAM LEAKAGE =       2.1883E-02
        UZF RECHARGE =           0.0000          UZF RECHARGE =           0.0000
               GW ET =           0.0000                 GW ET =           0.0000
     SURFACE LEAKAGE =           0.0000       SURFACE LEAKAGE =           0.0000

           TOTAL OUT =           0.1372             TOTAL OUT =       2.1883E-02

            IN - OUT =      -4.2140E-05              IN - OUT =      -5.7928E-06

 PERCENT DISCREPANCY =          -0.03     PERCENT DISCREPANCY =          -0.03






         TIME SUMMARY AT END OF TIME STEP    4 IN STRESS PERIOD    2
                    SECONDS     MINUTES      HOURS       DAYS        YEARS
                    -----------------------------------------------------------
   TIME STEP LENGTH  1.8707     3.11790E-02 5.19650E-04 2.16521E-05 5.92802E-08
 STRESS PERIOD TIME  5.2682     8.78036E-02 1.46339E-03 6.09747E-05 1.66940E-07
         TOTAL TIME  6.2682     0.10447     1.74117E-03 7.25488E-05 1.98628E-07
1
 
 SOLVING FOR HEAD 
     1 CALLS TO PCG ROUTINE FOR TIME STEP     5 IN STRESS PERIOD    2
     1 TOTAL ITERATIONS

 MAXIMUM HEAD CHANGE FOR EACH ITERATION (1 INDICATES THE FIRST INNER ITERATION):

    HEAD CHANGE    HEAD CHANGE    HEAD CHANGE    HEAD CHANGE    HEAD CHANGE 
   LAYER,ROW,COL  LAYER,ROW,COL  LAYER,ROW,COL  LAYER,ROW,COL  LAYER,ROW,COL
 ---------------------------------------------------------------------------
  1  0.1862E-08
   (  2,  5, 17)

 MAXIMUM RESIDUAL FOR EACH ITERATION (1 INDICATES THE FIRST INNER ITERATION):

    RESIDUAL       RESIDUAL       RESIDUAL       RESIDUAL       RESIDUAL    
   LAYER,ROW,COL  LAYER,ROW,COL  LAYER,ROW,COL  LAYER,ROW,COL  LAYER,ROW,COL
 ---------------------------------------------------------------------------
  1  0.1268E-04
   (  2,  2,  1)



 OUTPUT CONTROL FOR STRESS PERIOD    2   TIME STEP    5
    SAVE HEAD FOR ALL LAYERS
    SAVE DRAWDOWN FOR ALL LAYERS
    SAVE BUDGET
    PRINT BUDGET
 UBDSV1 SAVING "         STORAGE" ON UNIT   9 AT TIME STEP     5, STRESS PERIOD   2
 UBDSV2 SAVING "   CONSTANT HEAD" ON UNIT   9 AT TIME STEP     5, STRESS PERIOD   2
 UBDSV1 SAVING "FLOW RIGHT FACE " ON UNIT   9 AT TIME STEP     5, STRESS PERIOD   2
 UBDSV1 SAVING "FLOW FRONT FACE " ON UNIT   9 AT TIME STEP     5, STRESS PERIOD   2
 UBDSV1 SAVING "FLOW LOWER FACE " ON UNIT   9 AT TIME STEP     5, STRESS PERIOD   2
 UBDSV4 SAVING "  STREAM LEAKAGE" ON UNIT   9 AT TIME STEP     5, STRESS PERIOD   2



 STREAM LISTING     PERIOD      2   STEP        5

[...]
   1    6    6     1     9    1.0012E+00 -5.0622E-04   1.0017E+00  0.000E+00  0.000E+00  0.000E+00  2.48668E+00  1.000E+00  1.000E+00  9.862E-04  0.000E+00  0.000E+00
   1    6    7     1    10    1.0017E+00 -2.4257E-04   1.0020E+00  0.000E+00  0.000E+00  0.000E+00  2.42268E+00  1.000E+00  1.000E+00  4.202E-04  0.000E+00  0.000E+00
   1    7    7     1    11    1.0020E+00 -6.4331E-04   1.0026E+00  0.000E+00  0.000E+00  0.000E+00  2.35796E+00  1.000E+00  1.000E+00  1.002E-03  0.000E+00  0.000E+00
   1    7    8     1    12    1.0026E+00 -2.8550E-04   1.0029E+00  0.000E+00  0.000E+00  0.000E+00  2.29396E+00  1.000E+00  1.000E+00  4.044E-04  0.000E+00  0.000E+00
   1    8    8     1    13    1.0029E+00 -7.8446E-04   1.0037E+00  0.000E+00  0.000E+00  0.000E+00  2.22924E+00  1.000E+00  1.000E+00  1.018E-03  0.000E+00  0.000E+00
   1    8    9     1    14    1.0037E+00 -3.2436E-04   1.0040E+00  0.000E+00  0.000E+00  0.000E+00  2.16524E+00  1.000E+00  1.000E+00  3.886E-04  0.000E+00  0.000E+00
   1    9    9     1    15    1.0040E+00 -9.2969E-04   1.0049E+00  0.000E+00  0.000E+00  0.000E+00  2.10052E+00  1.000E+00  1.000E+00  1.034E-03  0.000E+00  0.000E+00
   1    9   10     1    16    1.0049E+00 -3.5915E-04   1.0053E+00  0.000E+00  0.000E+00  0.000E+00  2.03652E+00  1.000E+00  1.000E+00  3.728E-04  0.000E+00  0.000E+00
   1   10   10     1    17    1.0053E+00 -2.1276E-04   1.0055E+00  0.000E+00  0.000E+00  0.000E+00  2.00978E+00  1.000E+00  1.000E+00  2.149E-04  0.000E+00  0.000E+00
   1   10   11     2     1    1.0055E+00 -4.6601E-04   1.0060E+00  0.000E+00  0.000E+00  0.000E+00  1.97911E+00  1.000E+00  1.000E+00  4.565E-04  0.000E+00  0.000E+00
   1   11   11     2     2    1.0060E+00 -1.0243E-03   1.0070E+00  0.000E+00  0.000E+00  0.000E+00  1.91502E+00  1.000E+00  1.000E+00  9.441E-04  0.000E+00  0.000E+00
   1   11   12     2     3    1.0070E+00 -5.2220E-04   1.0075E+00  0.000E+00  0.000E+00  0.000E+00  1.85102E+00  1.000E+00  1.000E+00  4.545E-04  0.000E+00  0.000E+00
   1   12   12     2     4    1.0075E+00 -1.1851E-03   1.0087E+00  0.000E+00  0.000E+00  0.000E+00  1.78557E+00  1.000E+00  1.000E+00  9.759E-04  0.000E+00  0.000E+00
   1   12   13     2     5    1.0087E+00 -5.4040E-04   1.0092E+00  0.000E+00  0.000E+00  0.000E+00  1.72157E+00  1.000E+00  1.000E+00  4.227E-04  0.000E+00  0.000E+00
   1   13   13     2     6    1.0092E+00 -1.3542E-03   1.0106E+00  0.000E+00  0.000E+00  0.000E+00  1.65611E+00  1.000E+00  1.000E+00  1.008E-03  0.000E+00  0.000E+00
   1   13   14     2     7    1.0106E+00 -5.5037E-04   1.0111E+00  0.000E+00  0.000E+00  0.000E+00  1.59211E+00  1.000E+00  1.000E+00  3.909E-04  0.000E+00  0.000E+00
   1   14   14     2     8    1.0111E+00 -1.5314E-03   1.0127E+00  0.000E+00  0.000E+00  0.000E+00  1.52666E+00  1.000E+00  1.000E+00  1.039E-03  0.000E+00  0.000E+00
   1   14   15     2     9    1.0127E+00 -5.5211E-04   1.0132E+00  0.000E+00  0.000E+00  0.000E+00  1.46266E+00  1.000E+00  1.000E+00  3.591E-04  0.000E+00  0.000E+00
   1   15   15     2    10    1.0132E+00 -1.7169E-03   1.0149E+00  0.000E+00  0.000E+00  0.000E+00  1.39720E+00  1.000E+00  1.000E+00  1.071E-03  0.000E+00  0.000E+00
   1   15   16     2    11    1.0149E+00 -5.4562E-04   1.0155E+00  0.000E+00  0.000E+00  0.000E+00  1.33320E+00  1.000E+00  1.000E+00  3.274E-04  0.000E+00  0.000E+00
   1   16   16     2    12    1.0155E+00 -1.9107E-03   1.0174E+00  0.000E+00  0.000E+00  0.000E+00  1.26775E+00  1.000E+00  1.000E+00  1.103E-03  0.000E+00  0.000E+00
   1   16   17     2    13    1.0174E+00 -5.3090E-04   1.0179E+00  0.000E+00  0.000E+00  0.000E+00  1.20375E+00  1.000E+00  1.000E+00  2.956E-04  0.000E+00  0.000E+00
   1   17   17     2    14    1.0179E+00 -2.1127E-03   1.0200E+00  0.000E+00  0.000E+00  0.000E+00  1.13829E+00  1.000E+00  1.000E+00  1.135E-03  0.000E+00  0.000E+00
   1   17   18     2    15    1.0200E+00 -5.0796E-04   1.0205E+00  0.000E+00  0.000E+00  0.000E+00  1.07429E+00  1.000E+00  1.000E+00  2.638E-04  0.000E+00  0.000E+00
   1   18   18     2    16    1.0205E+00 -1.3386E-03   1.0219E+00  0.000E+00  0.000E+00  0.000E+00  1.03111E+00  1.000E+00  1.000E+00  6.799E-04  0.000E+00  0.000E+00



 UBDSV3 SAVING "           GW ET" ON UNIT   9 AT TIME STEP    24, STRESS PERIOD   2
 UBDSV3 SAVING "    UZF RECHARGE" ON UNIT   9 AT TIME STEP    24, STRESS PERIOD   2
 UBDSV3 SAVING " SURFACE LEAKAGE" ON UNIT   9 AT TIME STEP    24, STRESS PERIOD   2
 UBDSV3 SAVING "       HORT+DUNN" ON UNIT   9 AT TIME STEP    24, STRESS PERIOD   2
 UBDSV3 SAVING "  STORAGE CHANGE" ON UNIT   9 AT TIME STEP    24, STRESS PERIOD   2


UNSATURATED ZONE PACKAGE VOLUMETRIC BUDGET FOR  TIME STEP    24 STRESS PERIOD    2
  ------------------------------------------------------------------------------



     CUMULATIVE VOLUMES      L**3       RATES FOR THIS TIME STEP      L**3/T
     ------------------                 ------------------------

           IN:                                      IN:
           ---                                      ---
        INFILTRATION =       0.0000E+00          INFILTRATION =       0.0000E+00

          OUT:                                     OUT:
          ----                                     ----
              UZF ET =       0.0000E+00                UZF ET =       0.0000E+00
        UZF RECHARGE =       0.0000E+00          UZF RECHARGE =       0.0000E+00

            IN - OUT =       0.0000E+00              IN - OUT =       0.0000E+00

          STORAGE:                                 STORAGE:
          --------                                 --------
      STORAGE CHANGE =       0.0000E+00        STORAGE CHANGE =       0.0000E+00

 PERCENT DISCREPANCY IS DIFFERENCE BETWEEN IN-OUT MINUS CHANGE IN STORAGE
 DIVIDED BY THE AVERAGE OF IN AND OUT TIMES 100

 PERCENT DISCREPANCY =           0.00     PERCENT DISCREPANCY =           0.00







 HEAD WILL BE SAVED ON UNIT   37 AT END OF TIME STEP   24, STRESS PERIOD    2

 DRAWDOWN WILL BE SAVED ON UNIT   38 AT END OF TIME STEP   24, STRESS PERIOD    2
1
  VOLUMETRIC BUDGET FOR ENTIRE MODEL AT END OF TIME STEP   24, STRESS PERIOD   2
  ------------------------------------------------------------------------------

     CUMULATIVE VOLUMES      L**3       RATES FOR THIS TIME STEP      L**3/T
     ------------------                 ------------------------

           IN:                                      IN:
           ---                                      ---
             STORAGE =       3.8033E-06               STORAGE =           0.0000
       CONSTANT HEAD =          33.6704         CONSTANT HEAD =       2.1881E-02
      STREAM LEAKAGE =           0.0000        STREAM LEAKAGE =           0.0000
        UZF RECHARGE =           0.0000          UZF RECHARGE =           0.0000
               GW ET =           0.0000                 GW ET =           0.0000
     SURFACE LEAKAGE =           0.0000       SURFACE LEAKAGE =           0.0000

            TOTAL IN =          33.6704              TOTAL IN =       2.1881E-02

          OUT:                                     OUT:
          ----                                     ----
             STORAGE =       1.3100E-06               STORAGE =           0.0000
       CONSTANT HEAD =           0.0000         CONSTANT HEAD =           0.0000
      STREAM LEAKAGE =          33.6736        STREAM LEAKAGE =       2.1883E-02
        UZF RECHARGE =           0.0000          UZF RECHARGE =           0.0000
               GW ET =           0.0000                 GW ET =           0.0000
     SURFACE LEAKAGE =           0.0000       SURFACE LEAKAGE =           0.0000

           TOTAL OUT =          33.6736             TOTAL OUT =       2.1883E-02

            IN - OUT =      -3.2349E-03              IN - OUT =      -1.6447E-06

 PERCENT DISCREPANCY =          -0.01     PERCENT DISCREPANCY =          -0.01






         TIME SUMMARY AT END OF TIME STEP   24 IN STRESS PERIOD    2
                    SECONDS     MINUTES      HOURS       DAYS        YEARS
                    -----------------------------------------------------------
   TIME STEP LENGTH  355.53      5.9256     9.87593E-02 4.11497E-03 1.12662E-05
 STRESS PERIOD TIME  1537.8      25.630     0.42717     1.77987E-02 4.87301E-05
         TOTAL TIME  1538.8      25.647     0.42745     1.78103E-02 4.87618E-05
1
 
 SOLVING FOR HEAD 
     1 CALLS TO PCG ROUTINE FOR TIME STEP    25 IN STRESS PERIOD    2
     1 TOTAL ITERATIONS

 MAXIMUM HEAD CHANGE FOR EACH ITERATION (1 INDICATES THE FIRST INNER ITERATION):

    HEAD CHANGE    HEAD CHANGE    HEAD CHANGE    HEAD CHANGE    HEAD CHANGE 
   LAYER,ROW,COL  LAYER,ROW,COL  LAYER,ROW,COL  LAYER,ROW,COL  LAYER,ROW,COL
 ---------------------------------------------------------------------------
  1  0.5041E-09
   (  1,  1, 20)

 MAXIMUM RESIDUAL FOR EACH ITERATION (1 INDICATES THE FIRST INNER ITERATION):

    RESIDUAL       RESIDUAL       RESIDUAL       RESIDUAL       RESIDUAL    
   LAYER,ROW,COL  LAYER,ROW,COL  LAYER,ROW,COL  LAYER,ROW,COL  LAYER,ROW,COL
 ---------------------------------------------------------------------------
  1 -0.2030E-05
   (  1,  3,  1)



 OUTPUT CONTROL FOR STRESS PERIOD    2   TIME STEP   25
    SAVE HEAD FOR ALL LAYERS
    SAVE DRAWDOWN FOR ALL LAYERS
    SAVE BUDGET
    PRINT BUDGET
 UBDSV1 SAVING "         STORAGE" ON UNIT   9 AT TIME STEP    25, STRESS PERIOD   2
 UBDSV2 SAVING "   CONSTANT HEAD" ON UNIT   9 AT TIME STEP    25, STRESS PERIOD   2
 UBDSV1 SAVING "FLOW RIGHT FACE " ON UNIT   9 AT TIME STEP    25, STRESS PERIOD   2
 UBDSV1 SAVING "FLOW FRONT FACE " ON UNIT   9 AT TIME STEP    25, STRESS PERIOD   2
 UBDSV1 SAVING "FLOW LOWER FACE " ON UNIT   9 AT TIME STEP    25, STRESS PERIOD   2
 UBDSV4 SAVING "  STREAM LEAKAGE" ON UNIT   9 AT TIME STEP    25, STRESS PERIOD   2



 STREAM LISTING     PERIOD      2   STEP       25

 LAYER ROW COL. STREAM  RCH.   FLOW INTO    STREAM     FLOW OUT OF   OVRLND.    DIRECT     STREAM      STREAM      STREAM     STREAM  STREAMBED   FLOW TO   CHNG. UNSAT. 
                SEG.NO.  NO.   STRM. RCH.    LOSS       STRM. RCH.   RUNOFF     PRECIP       ET         HEAD        DEPTH      WIDTH  CONDCTNC.   WAT. TAB.

   1    2    2     1     1    1.0000E+00 -8.9848E-06   1.0000E+00  0.000E+00  0.000E+00  0.000E+00  2.97978E+00  1.000E+00  1.000E+00  4.444E-04  0.000E+00  0.000E+00
   1    2    3     1     2    1.0000E+00 -3.0181E-05   1.0000E+00  0.000E+00  0.000E+00  0.000E+00  2.93755E+00  1.000E+00  1.000E+00  4.834E-04  0.000E+00  0.000E+00
   1    3    3     1     3    1.0000E+00 -1.1937E-04   1.0002E+00  0.000E+00  0.000E+00  0.000E+00  2.87283E+00  1.000E+00  1.000E+00  9.388E-04  0.000E+00  0.000E+00
   1    3    4     1     4    1.0002E+00 -8.9380E-05   1.0002E+00  0.000E+00  0.000E+00  0.000E+00  2.80883E+00  1.000E+00  1.000E+00  4.676E-04  0.000E+00  0.000E+00
   1    4    4     1     5    1.0002E+00 -2.4425E-04   1.0005E+00  0.000E+00  0.000E+00  0.000E+00  2.74411E+00  1.000E+00  1.000E+00  9.546E-04  0.000E+00  0.000E+00
   1    4    5     1     6    1.0005E+00 -1.4451E-04   1.0006E+00  0.000E+00  0.000E+00  0.000E+00  2.68011E+00  1.000E+00  1.000E+00  4.518E-04  0.000E+00  0.000E+00
   1    5    5     1     7    1.0006E+00 -3.7320E-04   1.0010E+00  0.000E+00  0.000E+00  0.000E+00  2.61540E+00  1.000E+00  1.000E+00  9.704E-04  0.000E+00  0.000E+00
   1    5    6     1     8    1.0010E+00 -1.9558E-04   1.0012E+00  0.000E+00  0.000E+00  0.000E+00  2.55140E+00  1.000E+00  1.000E+00  4.360E-04  0.000E+00  0.000E+00
   1    6    6     1     9    1.0012E+00 -5.0622E-04   1.0017E+00  0.000E+00  0.000E+00  0.000E+00  2.48668E+00  1.000E+00  1.000E+00  9.862E-04  0.000E+00  0.000E+00
   1    6    7     1    10    1.0017E+00 -2.4257E-04   1.0020E+00  0.000E+00  0.000E+00  0.000E+00  2.42268E+00  1.000E+00  1.000E+00  4.202E-04  0.000E+00  0.000E+00
   1    7    7     1    11    1.0020E+00 -6.4331E-04   1.0026E+00  0.000E+00  0.000E+00  0.000E+00  2.35796E+00  1.000E+00  1.000E+00  1.002E-03  0.000E+00  0.000E+00
   1    7    8     1    12    1.0026E+00 -2.8550E-04   1.0029E+00  0.000E+00  0.000E+00  0.000E+00  2.29396E+00  1.000E+00  1.000E+00  4.044E-04  0.000E+00  0.000E+00
   1    8    8     1    13    1.0029E+00 -7.8446E-04   1.0037E+00  0.000E+00  0.000E+00  0.000E+00  2.22924E+00  1.000E+00  1.000E+00  1.018E-03  0.000E+00  0.000E+00
   1    8    9     1    14    1.0037E+00 -3.2436E-04   1.0040E+00  0.000E+00  0.000E+00  0.000E+00  2.16524E+00  1.000E+00  1.000E+00  3.886E-04  0.000E+00  0.000E+00
   1    9    9     1    15    1.0040E+00 -9.2969E-04   1.0049E+00  0.000E+00  0.000E+00  0.000E+00  2.10052E+00  1.000E+00  1.000E+00  1.034E-03  0.000E+00  0.000E+00
   1    9   10     1    16    1.0049E+00 -3.5915E-04   1.0053E+00  0.000E+00  0.000E+00  0.000E+00  2.03652E+00  1.000E+00  1.000E+00  3.728E-04  0.000E+00  0.000E+00
   1   10   10     1    17    1.0053E+00 -2.1276E-04   1.0055E+00  0.000E+00  0.000E+00  0.000E+00  2.00978E+00  1.000E+00  1.000E+00  2.149E-04  0.000E+00  0.000E+00
   1   10   11     2     1    1.0055E+00 -4.6601E-04   1.0060E+00  0.000E+00  0.000E+00  0.000E+00  1.97911E+00  1.000E+00  1.000E+00  4.565E-04  0.000E+00  0.000E+00
   1   11   11     2     2    1.0060E+00 -1.0243E-03   1.0070E+00  0.000E+00  0.000E+00  0.000E+00  1.91502E+00  1.000E+00  1.000E+00  9.441E-04  0.000E+00  0.000E+00
   1   11   12     2     3    1.0070E+00 -5.2220E-04   1.0075E+00  0.000E+00  0.000E+00  0.000E+00  1.85102E+00  1.000E+00  1.000E+00  4.545E-04  0.000E+00  0.000E+00
   1   12   12     2     4    1.0075E+00 -1.1851E-03   1.0087E+00  0.000E+00  0.000E+00  0.000E+00  1.78557E+00  1.000E+00  1.000E+00  9.759E-04  0.000E+00  0.000E+00
   1   12   13     2     5    1.0087E+00 -5.4040E-04   1.0092E+00  0.000E+00  0.000E+00  0.000E+00  1.72157E+00  1.000E+00  1.000E+00  4.227E-04  0.000E+00  0.000E+00
   1   13   13     2     6    1.0092E+00 -1.3542E-03   1.0106E+00  0.000E+00  0.000E+00  0.000E+00  1.65611E+00  1.000E+00  1.000E+00  1.008E-03  0.000E+00  0.000E+00
   1   13   14     2     7    1.0106E+00 -5.5037E-04   1.0111E+00  0.000E+00  0.000E+00  0.000E+00  1.59211E+00  1.000E+00  1.000E+00  3.909E-04  0.000E+00  0.000E+00
   1   14   14     2     8    1.0111E+00 -1.5314E-03   1.0127E+00  0.000E+00  0.000E+00  0.000E+00  1.52666E+00  1.000E+00  1.000E+00  1.039E-03  0.000E+00  0.000E+00
   1   14   15     2     9    1.0127E+00 -5.5211E-04   1.0132E+00  0.000E+00  0.000E+00  0.000E+00  1.46266E+00  1.000E+00  1.000E+00  3.591E-04  0.000E+00  0.000E+00
   1   15   15     2    10    1.0132E+00 -1.7169E-03   1.0149E+00  0.000E+00  0.000E+00  0.000E+00  1.39720E+00  1.000E+00  1.000E+00  1.071E-03  0.000E+00  0.000E+00
   1   15   16     2    11    1.0149E+00 -5.4562E-04   1.0155E+00  0.000E+00  0.000E+00  0.000E+00  1.33320E+00  1.000E+00  1.000E+00  3.274E-04  0.000E+00  0.000E+00
   1   16   16     2    12    1.0155E+00 -1.9107E-03   1.0174E+00  0.000E+00  0.000E+00  0.000E+00  1.26775E+00  1.000E+00  1.000E+00  1.103E-03  0.000E+00  0.000E+00
   1   16   17     2    13    1.0174E+00 -5.3090E-04   1.0179E+00  0.000E+00  0.000E+00  0.000E+00  1.20375E+00  1.000E+00  1.000E+00  2.956E-04  0.000E+00  0.000E+00
   1   17   17     2    14    1.0179E+00 -2.1127E-03   1.0200E+00  0.000E+00  0.000E+00  0.000E+00  1.13829E+00  1.000E+00  1.000E+00  1.135E-03  0.000E+00  0.000E+00
   1   17   18     2    15    1.0200E+00 -5.0796E-04   1.0205E+00  0.000E+00  0.000E+00  0.000E+00  1.07429E+00  1.000E+00  1.000E+00  2.638E-04  0.000E+00  0.000E+00
   1   18   18     2    16    1.0205E+00 -1.3386E-03   1.0219E+00  0.000E+00  0.000E+00  0.000E+00  1.03111E+00  1.000E+00  1.000E+00  6.799E-04  0.000E+00  0.000E+00



 UBDSV3 SAVING "           GW ET" ON UNIT   9 AT TIME STEP    25, STRESS PERIOD   2
 UBDSV3 SAVING "    UZF RECHARGE" ON UNIT   9 AT TIME STEP    25, STRESS PERIOD   2
 UBDSV3 SAVING " SURFACE LEAKAGE" ON UNIT   9 AT TIME STEP    25, STRESS PERIOD   2
 UBDSV3 SAVING "       HORT+DUNN" ON UNIT   9 AT TIME STEP    25, STRESS PERIOD   2
 UBDSV3 SAVING "  STORAGE CHANGE" ON UNIT   9 AT TIME STEP    25, STRESS PERIOD   2


UNSATURATED ZONE PACKAGE VOLUMETRIC BUDGET FOR  TIME STEP    25 STRESS PERIOD    2
  ------------------------------------------------------------------------------



     CUMULATIVE VOLUMES      L**3       RATES FOR THIS TIME STEP      L**3/T
     ------------------                 ------------------------

           IN:                                      IN:
           ---                                      ---
        INFILTRATION =       0.0000E+00          INFILTRATION =       0.0000E+00

          OUT:                                     OUT:
          ----                                     ----
              UZF ET =       0.0000E+00                UZF ET =       0.0000E+00
        UZF RECHARGE =       0.0000E+00          UZF RECHARGE =       0.0000E+00

            IN - OUT =       0.0000E+00              IN - OUT =       0.0000E+00

          STORAGE:                                 STORAGE:
          --------                                 --------
      STORAGE CHANGE =       0.0000E+00        STORAGE CHANGE =       0.0000E+00

 PERCENT DISCREPANCY IS DIFFERENCE BETWEEN IN-OUT MINUS CHANGE IN STORAGE
 DIVIDED BY THE AVERAGE OF IN AND OUT TIMES 100

 PERCENT DISCREPANCY =           0.00     PERCENT DISCREPANCY =           0.00







 HEAD WILL BE SAVED ON UNIT   37 AT END OF TIME STEP   25, STRESS PERIOD    2

 DRAWDOWN WILL BE SAVED ON UNIT   38 AT END OF TIME STEP   25, STRESS PERIOD    2
1
  VOLUMETRIC BUDGET FOR ENTIRE MODEL AT END OF TIME STEP   25, STRESS PERIOD   2
  ------------------------------------------------------------------------------

     CUMULATIVE VOLUMES      L**3       RATES FOR THIS TIME STEP      L**3/T
     ------------------                 ------------------------

           IN:                                      IN:
           ---                                      ---
             STORAGE =       3.8033E-06               STORAGE =           0.0000
       CONSTANT HEAD =          43.7838         CONSTANT HEAD =       2.1881E-02
      STREAM LEAKAGE =           0.0000        STREAM LEAKAGE =           0.0000
        UZF RECHARGE =           0.0000          UZF RECHARGE =           0.0000
               GW ET =           0.0000                 GW ET =           0.0000
     SURFACE LEAKAGE =           0.0000       SURFACE LEAKAGE =           0.0000

            TOTAL IN =          43.7838              TOTAL IN =       2.1881E-02

          OUT:                                     OUT:
          ----                                     ----
             STORAGE =       1.3100E-06               STORAGE =           0.0000
       CONSTANT HEAD =           0.0000         CONSTANT HEAD =           0.0000
      STREAM LEAKAGE =          43.7878        STREAM LEAKAGE =       2.1883E-02
        UZF RECHARGE =           0.0000          UZF RECHARGE =           0.0000
               GW ET =           0.0000                 GW ET =           0.0000
     SURFACE LEAKAGE =           0.0000       SURFACE LEAKAGE =           0.0000

           TOTAL OUT =          43.7878             TOTAL OUT =       2.1883E-02

            IN - OUT =      -3.9444E-03              IN - OUT =      -1.5330E-06

 PERCENT DISCREPANCY =          -0.01     PERCENT DISCREPANCY =          -0.01






         TIME SUMMARY AT END OF TIME STEP   25 IN STRESS PERIOD    2
                    SECONDS     MINUTES      HOURS       DAYS        YEARS
                    -----------------------------------------------------------
   TIME STEP LENGTH  462.19      7.7032     0.12839     5.34946E-03 1.46460E-05
 STRESS PERIOD TIME  2000.0      33.333     0.55556     2.31481E-02 6.33762E-05
         TOTAL TIME  2001.0      33.350     0.55583     2.31597E-02 6.34079E-05
1

 Run end date and time (yyyy/mm/dd hh:mm:ss): 2017/07/11 15:22:00
 Elapsed run time:  0.062 Seconds

