                                  MODFLOW-NWT-SWR1 
      U.S. GEOLOGICAL SURVEY MODULAR FINITE-DIFFERENCE GROUNDWATER-FLOW MODEL
                            VERSION 1.1.4, 4/01/2018
                    BASED ON MODFLOW-2005 VERSION 1.11.00 08/08/2013

 LIST FILE: Agwater1.lst
                         UNIT    9

 OPENING Agwater1.ba6
 FILE TYPE:BAS6   UNIT   75   STATUS:OLD    
 FORMAT:FORMATTED              ACCESS:SEQUENTIAL          

 OPENING Agwater1.upw
 FILE TYPE:UPW   UNIT    7   STATUS:OLD    
 FORMAT:FORMATTED              ACCESS:SEQUENTIAL          

 OPENING Agwater1.dis
 FILE TYPE:DIS   UNIT    8   STATUS:OLD    
 FORMAT:FORMATTED              ACCESS:SEQUENTIAL          

 OPENING Agwater1.nwt
 FILE TYPE:NWT   UNIT   13   STATUS:OLD    
 FORMAT:FORMATTED              ACCESS:SEQUENTIAL          

 OPENING Agwater1.oc
 FILE TYPE:OC   UNIT   14   STATUS:OLD    
 FORMAT:FORMATTED              ACCESS:SEQUENTIAL          

 OPENING Agwater1.sfr
 FILE TYPE:SFR   UNIT   15   STATUS:OLD    
 FORMAT:FORMATTED              ACCESS:SEQUENTIAL          

 OPENING Agwater1.ghb
 FILE TYPE:GHB   UNIT   17   STATUS:OLD    
 FORMAT:FORMATTED              ACCESS:SEQUENTIAL          

 OPENING Agwater1.uzf
 FILE TYPE:UZF   UNIT   19   STATUS:OLD    
 FORMAT:FORMATTED              ACCESS:SEQUENTIAL          

 OPENING Agwater1.gag
 FILE TYPE:GAGE   UNIT   32   STATUS:OLD    
 FORMAT:FORMATTED              ACCESS:SEQUENTIAL          

 OPENING seg1.tab
 FILE TYPE:DATA   UNIT   55   STATUS:UNKNOWN
 FORMAT:FORMATTED              ACCESS:SEQUENTIAL          

 OPENING seg9.tab
 FILE TYPE:DATA   UNIT   56   STATUS:UNKNOWN
 FORMAT:FORMATTED              ACCESS:SEQUENTIAL          

 OPENING Agwater1.awu
 FILE TYPE:AWU   UNIT   57   STATUS:OLD    
 FORMAT:FORMATTED              ACCESS:SEQUENTIAL          

 OPENING Agwater1.hed
 FILE TYPE:DATA   UNIT   62   STATUS:UNKNOWN
 FORMAT:FORMATTED              ACCESS:SEQUENTIAL          

 OPENING Agwater1.ts9
 FILE TYPE:DATA   UNIT  105   STATUS:UNKNOWN
 FORMAT:FORMATTED              ACCESS:SEQUENTIAL          

 OPENING Agwater1.ts5
 FILE TYPE:DATA   UNIT  106   STATUS:UNKNOWN
 FORMAT:FORMATTED              ACCESS:SEQUENTIAL          

 OPENING Agwater1.uzfot
 FILE TYPE:DATA(BINARY)   UNIT   61   STATUS:UNKNOWN
 FORMAT:BINARY                 ACCESS:SEQUENTIAL          

 OPENING Agwater1cbc.unf
 FILE TYPE:DATA(BINARY)   UNIT  102   STATUS:UNKNOWN
 FORMAT:BINARY                 ACCESS:SEQUENTIAL          

 OPENING welllist.unf
 FILE TYPE:DATA(BINARY)   UNIT  103   STATUS:UNKNOWN
 FORMAT:BINARY                 ACCESS:SEQUENTIAL          

 OPENING wellirrlist.unf
 FILE TYPE:DATA(BINARY)   UNIT  104   STATUS:UNKNOWN
 FORMAT:BINARY                 ACCESS:SEQUENTIAL          

 OPENING Agwater1.uzf1
 FILE TYPE:DATA   UNIT   65   STATUS:UNKNOWN
 FORMAT:FORMATTED              ACCESS:SEQUENTIAL          

 OPENING Agwater1.uzf2
 FILE TYPE:DATA   UNIT   66   STATUS:UNKNOWN
 FORMAT:FORMATTED              ACCESS:SEQUENTIAL          

 OPENING Agwater1.uzf3
 FILE TYPE:DATA   UNIT   67   STATUS:UNKNOWN
 FORMAT:FORMATTED              ACCESS:SEQUENTIAL          

 OPENING Agwater1.uzf4
 FILE TYPE:DATA   UNIT   68   STATUS:UNKNOWN
 FORMAT:FORMATTED              ACCESS:SEQUENTIAL          

 OPENING Agwater1.flw
 FILE TYPE:DATA   UNIT   81   STATUS:UNKNOWN
 FORMAT:FORMATTED              ACCESS:SEQUENTIAL          

 OPENING Agwater1.sg1
 FILE TYPE:DATA   UNIT   83   STATUS:UNKNOWN
 FORMAT:FORMATTED              ACCESS:SEQUENTIAL          

 OPENING Agwater1.sg2
 FILE TYPE:DATA   UNIT   84   STATUS:UNKNOWN
 FORMAT:FORMATTED              ACCESS:SEQUENTIAL          

 OPENING Agwater1.sg3
 FILE TYPE:DATA   UNIT   85   STATUS:UNKNOWN
 FORMAT:FORMATTED              ACCESS:SEQUENTIAL          

 OPENING Agwater1.sg4
 FILE TYPE:DATA   UNIT   86   STATUS:UNKNOWN
 FORMAT:FORMATTED              ACCESS:SEQUENTIAL          

 OPENING Agwater1.sg5
 FILE TYPE:DATA   UNIT   87   STATUS:UNKNOWN
 FORMAT:FORMATTED              ACCESS:SEQUENTIAL          

 OPENING Agwater1.sg6
 FILE TYPE:DATA   UNIT   88   STATUS:UNKNOWN
 FORMAT:FORMATTED              ACCESS:SEQUENTIAL          

 OPENING Agwater1.sg7
 FILE TYPE:DATA   UNIT   89   STATUS:UNKNOWN
 FORMAT:FORMATTED              ACCESS:SEQUENTIAL          

 OPENING Agwater1.sg8
 FILE TYPE:DATA   UNIT   90   STATUS:UNKNOWN
 FORMAT:FORMATTED              ACCESS:SEQUENTIAL          

 OPENING Agwater1.sg9
 FILE TYPE:DATA   UNIT   91   STATUS:UNKNOWN
 FORMAT:FORMATTED              ACCESS:SEQUENTIAL          

 BAS -- BASIC PACKAGE, VERSION 1.1.4, 4/01/2018 INPUT READ FROM UNIT   75
 
 MODFLOW was compiled using mixed precision
 Precision of REAL variables:           6
 Precision of DOUBLE PRECISION variables:          15

 DISCRETIZATION INPUT DATA READ FROM UNIT    8
 #Test problem 2-- Discretization input
 #Example problem using the UZF1 Package
    1 LAYERS        15 ROWS        10 COLUMNS
   25 STRESS PERIOD(S) IN SIMULATION
 MODEL TIME UNIT IS SECONDS
 MODEL LENGTH UNIT IS FEET
  Confining bed flag for each layer:
   0

                     DELR =   5000.00    

                     DELC =   5000.00    



           TOP ELEVATION OF LAYER 1
 READING ON UNIT    8 WITH FORMAT: (10F7.0)            

            1           2           3           4           5           6           7           8           9          10
 ........................................................................................................................
   1    1105.       1105.       0.000       0.000       0.000       0.000       0.000       0.000       0.000       0.000    
   2    1105.       1095.       1105.       0.000       0.000       1100.       1100.       1110.       0.000       0.000    
   3    0.000       1100.       1085.       1080.       1078.       1076.       1073.       1090.       0.000       0.000    
   4    1110.       1100.       1090.       1085.       1076.       1080.       1080.       1070.       1100.       0.000    
   5    1110.       1100.       1085.       1080.       1078.       1074.       1077.       1066.       1075.       1080.    
   6    1105.       1095.       1080.       1077.       1073.       1069.       1070.       1063.       1085.       1095.    
   7    1105.       1090.       1075.       1072.       1070.       1065.       1065.       1069.       1090.       0.000    
   8    0.000       1080.       1070.       1068.       1063.       1060.       1063.       1067.       1090.       0.000    
   9    0.000       1075.       1065.       1062.       1058.       1052.       1055.       1065.       1090.       0.000    
  10    0.000       1070.       1060.       1055.       1046.       1046.       1044.       1060.       1088.       1100.    
  11    0.000       1055.       1050.       1045.       1041.       1042.       1040.       1050.       1075.       0.000    
  12    1027.       1028.       1028.       1032.       1032.       1033.       1032.       1040.       1060.       0.000    
  13    997.0       1004.       1008.       1014.       1020.       1027.       1032.       1038.       1050.       0.000    
  14    0.000       1030.       1040.       1045.       1050.       1050.       1050.       1050.       1044.       0.000    
  15    0.000       0.000       1080.       1080.       1080.       1080.       0.000       0.000       0.000       0.000    



             MODEL LAYER BOTTOM EL. FOR LAYER   1
 READING ON UNIT    8 WITH FORMAT: (10F7.0)            

            1           2           3           4           5           6           7           8           9          10
 ........................................................................................................................
   1    1000.       1000.       0.000       0.000       0.000       0.000       0.000       0.000       0.000       0.000    
   2    1000.       900.0       900.0       0.000       0.000       950.0       950.0       950.0       0.000       0.000    
   3    0.000       850.0       670.0       680.0       680.0       770.0       770.0       890.0       0.000       0.000    
   4    925.0       850.0       650.0       650.0       650.0       680.0       740.0       850.0       950.0       0.000    
   5    925.0       800.0       650.0       600.0       600.0       600.0       650.0       720.0       850.0       950.0    
   6    925.0       800.0       650.0       600.0       550.0       600.0       650.0       720.0       850.0       970.0    
   7    925.0       800.0       650.0       600.0       550.0       600.0       650.0       720.0       950.0       0.000    
   8    0.000       850.0       700.0       650.0       570.0       600.0       700.0       850.0       950.0       0.000    
   9    0.000       850.0       700.0       650.0       540.0       580.0       700.0       850.0       950.0       0.000    
  10    0.000       850.0       700.0       630.0       530.0       580.0       650.0       800.0       900.0       950.0    
  11    0.000       850.0       700.0       620.0       580.0       620.0       700.0       800.0       900.0       0.000    
  12    900.0       830.0       710.0       640.0       600.0       650.0       700.0       800.0       900.0       0.000    
  13    900.0       810.0       750.0       700.0       650.0       700.0       750.0       800.0       900.0       0.000    
  14    0.000       950.0       850.0       850.0       850.0       850.0       850.0       850.0       850.0       0.000    
  15    0.000       0.000       950.0       950.0       950.0       950.0       0.000       0.000       0.000       0.000    


 STRESS PERIOD     LENGTH       TIME STEPS     MULTIPLIER FOR DELT    SS FLAG
 ----------------------------------------------------------------------------
        1         86400.00          1                    1.000         SS
        2         2628000.         30                    1.000         TR
        3         2628000.         30                    1.000         TR
        4         2628000.         30                    1.000         TR
        5         2628000.         30                    1.000         TR
        6         2628000.         30                    1.000         TR
        7         2628000.         30                    1.000         TR
        8         2628000.         30                    1.000         TR
        9         2628000.         30                    1.000         TR
       10         2628000.         30                    1.000         TR
       11         2628000.         30                    1.000         TR
       12         2628000.         30                    1.000         TR
       13         2628000.         30                    1.000         TR
       14         2628000.         30                    1.000         TR
       15         2628000.         30                    1.000         TR
       16         2628000.         30                    1.000         TR
       17         2628000.         30                    1.000         TR
       18         2628000.         30                    1.000         TR
       19         2628000.         30                    1.000         TR
       20         2628000.         30                    1.000         TR
       21         2628000.         30                    1.000         TR
       22         2628000.         30                    1.000         TR
       23         2628000.         30                    1.000         TR
       24         2628000.         30                    1.000         TR
       25         2628000.         30                    1.000         TR

 COMBINED STEADY-STATE AND TRANSIENT SIMULATION



 
 #Test Simulation 2-- Example problem using the UZF1 Package                     
 #Modified from example Problem 1 of SFR1 documentation report                   
 THE FREE FORMAT OPTION HAS BEEN SELECTED



                     BOUNDARY ARRAY FOR LAYER   1
 READING ON UNIT   75 WITH FORMAT: (20I4)              

                1           2           3           4           5           6           7           8           9          10
 ............................................................................................................................
   1            1           1           0           0           0           0           0           0           0           0
   2            1           1           1           0           0           1           1           1           0           0
   3            0           1           1           1           1           1           1           1           0           0
   4            1           1           1           1           1           1           1           1           1           0
   5            1           1           1           1           1           1           1           1           1           1
   6            1           1           1           1           1           1           1           1           1           1
   7            1           1           1           1           1           1           1           1           1           0
   8            0           1           1           1           1           1           1           1           1           0
   9            0           1           1           1           1           1           1           1           1           0
  10            0           1           1           1           1           1           1           1           1           1
  11            0           1           1           1           1           1           1           1           1           0
  12            1           1           1           1           1           1           1           1           1           0
  13            1           1           1           1           1           1           1           1           1           0
  14            0           1           1           1           1           1           1           1           1           0
  15            0           0           1           1           1           1           0           0           0           0

 AQUIFER HEAD WILL BE SET TO   6999.0     AT ALL NO-FLOW NODES (IBOUND=0).



                       INITIAL HEAD FOR LAYER   1
 READING ON UNIT   75 WITH FORMAT: (10F8.0)            

            1           2           3           4           5           6           7           8           9          10
 ........................................................................................................................
   1    1093.       1089.       6999.       6999.       6999.       6999.       6999.       6999.       6999.       6999.    
   2    1090.       1087.       1081.       6999.       6999.       1072.       1071.       1071.       6999.       6999.    
   3    6999.       1079.       1078.       1074.       1072.       1071.       1069.       1068.       6999.       6999.    
   4    1069.       1071.       1070.       1067.       1065.       1064.       1064.       1066.       1066.       6999.    
   5    1065.       1064.       1063.       1062.       1061.       1061.       1060.       1062.       1066.       1068.    
   6    1060.       1058.       1057.       1056.       1056.       1057.       1057.       1059.       1062.       1066.    
   7    1056.       1053.       1052.       1051.       1051.       1052.       1053.       1055.       1056.       6999.    
   8    6999.       1046.       1046.       1046.       1046.       1046.       1048.       1050.       1050.       6999.    
   9    6999.       1039.       1039.       1039.       1040.       1041.       1042.       1043.       1044.       6999.    
  10    6999.       1031.       1032.       1033.       1034.       1035.       1037.       1038.       1039.       1042.    
  11    6999.       1021.       1023.       1027.       1029.       1030.       1032.       1034.       1036.       6999.    
  12    1001.       1009.       1015.       1020.       1023.       1026.       1029.       1030.       1034.       6999.    
  13    994.5      1000.0       1007.       1013.       1019.       1024.       1029.       1034.       1036.       6999.    
  14    6999.       1004.       1009.       1014.       1019.       1024.       1029.       1035.       1039.       6999.    
  15    6999.       6999.       1012.       1015.       1019.       1022.       6999.       6999.       6999.       6999.    

 OUTPUT CONTROL IS SPECIFIED ONLY AT TIME STEPS FOR WHICH OUTPUT IS DESIRED
 HEADS WILL BE SAVED WITH FORMAT: (10F10.3)           
 SAVED HEADS WILL BE LABELED
 COMPACT CELL-BY-CELL BUDGET FILES WILL BE WRITTEN
 HEAD PRINT FORMAT CODE IS   4    DRAWDOWN PRINT FORMAT CODE IS   0
 HEADS WILL BE SAVED ON UNIT   62    DRAWDOWNS WILL BE SAVED ON UNIT    0
 # NWT Input File
 # Test Problem 3 for MODFLOW-NWT
 #HEADTOL  FLUXTOL MAXITEROUT THICKFACT LINMETH IPRNWT IBOTAV OPTIONS DBDREDUCE DBDINCREASE DBDGAMMA MOMFACT BACKFLAG MAXBACKITER BACKTOL BACKREDUCE

 NWT1 -- Newton Solver, VERSION 1.1.4, 4/01/2018
         INPUT READ FROM UNIT 13

 SPECIFIED OPTION:
 SOLVER INPUT VALUES ARE SPECIFIED BY USER
 ***XMD linear solver will be used***
 
   CONVERGENCE CRITERION OF   0.100000E-03 FOR HEAD SOLUTION
   AND A TOLERANCE OF   0.100000E+03 FOR FLOW SOLUTION AND 
   A MAXIMUM OF   500 OUTER ITERATIONS. 


   D-B-D REDUCTION FACTOR OF    0.990000E+00 AND 
   A D-B-D INCREASE FACTOR OF    0.100000E-04 AND 
   A D-B-D RELAXATION OF    0.000000E+00 AND 
   A MOMENTUM FACTOR OF    0.100000E+00 .


 ***BACKTRACKING IS INACTIVE***
 XMD -- LINEAR SOLUTION BY XMD PACKAGE VERSION 1.30
     BY MOTOMU IBARAKI, OHIO STATE UNIVERSITY, COLOMBUS, OH
                 INPUT READ FROM UNIT 13
 ACCELERATION METHOD                    (IACL) =         2
 NODE ORDERING FLAG                   (NORDER) =         0
 LEVEL OF FILL                         (LEVEL) =        10
 MAXIMUM NUMBER OF ORTHOGONALIZATIONS  (NORTH) =        10
 INDEX FOR USING REDUCED SYSTEM      (IREDSYS) =         1
 RESID. REDUCTION CONVERGE CRITERION  (RRCTOL) =  0.000000E+00
 INDEX FOR USING DROP TOLERANCE     (IDROPTOL) =         1
 DROP TOLERANCE VALUE                  (EPSRN) =  0.500000E-02
 CONVERGENCE CRITERIA OF           (HCLOSEXMD) =  0.100000E-03
 MAX. NUMBER OF LINEAR ITERATIONS  (MXITERXMD) =        50


 UPW1 -- UPSTREAM WEIGHTING FLOW PACKAGE, VERSION 1.1.4, 4/01/2018
         INPUT READ FROM UNIT  7

 #Layer-Property Flow Package input for test simulation 2
 CELL-BY-CELL FLOWS WILL BE SAVED ON UNIT  102
 No named parameters

   LAYER FLAGS:
 LAYER       LAYTYP          LAYAVG    CHANI           LAYVKA           LAYWET
 ---------------------------------------------------------------------------
    1             1             0     1.000E+00             0             0

   INTERPRETATION OF LAYER FLAGS:
                        INTERBLOCK     HORIZONTAL    DATA IN
         LAYER TYPE   TRANSMISSIVITY   ANISOTROPY   ARRAY VKA   WETTABILITY
 LAYER   (LAYTYP)        (LAYAVG)      (CHANI)     (LAYVKA)       (LAYWET)
 ---------------------------------------------------------------------------
    1   CONVERTIBLE      HARMONIC     1.000E+00    VERTICAL K  NON-WETTABLE



              HYD. COND. ALONG ROWS FOR LAYER   1
 READING ON UNIT    7 WITH FORMAT: (10F5.0)            

            1           2           3           4           5           6           7           8           9          10
 ........................................................................................................................
   1   2.0000E-03  2.0000E-03   0.000       0.000       0.000       0.000       0.000       0.000       0.000       0.000    
   2   4.0000E-04  2.0000E-03  2.0000E-03   0.000       0.000      4.0000E-04  4.0000E-04  4.0000E-04   0.000       0.000    
   3    0.000      4.0000E-04  2.0000E-03  2.0000E-03  4.0000E-04  4.0000E-04  4.0000E-04  4.0000E-04   0.000       0.000    
   4   4.0000E-04  4.0000E-04  4.0000E-04  2.0000E-03  2.0000E-03  2.0000E-03  4.0000E-04  4.0000E-04  4.0000E-04   0.000    
   5   4.0000E-04  4.0000E-04  4.0000E-04  2.0000E-03  2.0000E-03  2.0000E-03  2.0000E-03  2.0000E-03  2.0000E-03  2.0000E-03
   6   4.0000E-04  4.0000E-04  4.0000E-04  2.0000E-03  2.0000E-03  2.0000E-03  2.0000E-03  2.0000E-03  4.0000E-04  4.0000E-04
   7   4.0000E-04  4.0000E-04  4.0000E-04  2.0000E-03  2.0000E-03  2.0000E-03  2.0000E-03  2.0000E-03  4.0000E-04   0.000    
   8    0.000      4.0000E-04  4.0000E-04  2.0000E-03  2.0000E-03  2.0000E-03  2.0000E-03  4.0000E-04  4.0000E-04   0.000    
   9    0.000      4.0000E-04  4.0000E-04  2.0000E-03  2.0000E-03  2.0000E-03  2.0000E-03  4.0000E-04  4.0000E-04   0.000    
  10    0.000      4.0000E-04  4.0000E-04  2.0000E-03  2.0000E-03  2.0000E-03  2.0000E-03  4.0000E-04  4.0000E-04  4.0000E-04
  11    0.000      4.0000E-04  4.0000E-04  2.0000E-03  2.0000E-03  2.0000E-03  2.0000E-03  4.0000E-04  4.0000E-04   0.000    
  12   4.0000E-04  4.0000E-04  2.0000E-03  2.0000E-03  2.0000E-03  2.0000E-03  2.0000E-03  4.0000E-04  4.0000E-04   0.000    
  13   2.0000E-03  2.0000E-03  2.0000E-03  2.0000E-03  2.0000E-03  2.0000E-03  2.0000E-03  2.0000E-03  2.0000E-03   0.000    
  14    0.000      4.0000E-04  4.0000E-04  4.0000E-04  4.0000E-04  4.0000E-04  4.0000E-04  4.0000E-04  2.0000E-03   0.000    
  15    0.000       0.000      4.0000E-04  4.0000E-04  4.0000E-04  4.0000E-04   0.000       0.000       0.000       0.000    

      VERTICAL HYD. COND. =  1.000000E-06 FOR LAYER   1

         SPECIFIC STORAGE =  1.000000E-06 FOR LAYER   1



                     SPECIFIC YIELD FOR LAYER   1
 READING ON UNIT    7 WITH FORMAT: (10F5.0)            

            1           2           3           4           5           6           7           8           9          10
 ........................................................................................................................
   1   0.2000      0.2000       0.000       0.000       0.000       0.000       0.000       0.000       0.000       0.000    
   2   0.1000      0.2000      0.2000       0.000       0.000      0.1000      0.1000      0.1000       0.000       0.000    
   3    0.000      0.1000      0.2000      0.2000      0.1000      0.1000      0.1000      0.1000       0.000       0.000    
   4   0.1000      0.1000      0.1000      0.2000      0.2000      0.2000      0.1000      0.1000      0.1000       0.000    
   5   0.1000      0.1000      0.1000      0.2000      0.2000      0.2000      0.2000      0.2000      0.2000      0.2000    
   6   0.1000      0.1000      0.1000      0.2000      0.2000      0.2000      0.2000      0.2000      0.1000      0.1000    
   7   0.1000      0.1000      0.1000      0.2000      0.2000      0.2000      0.2000      0.2000      0.1000       0.000    
   8    0.000      0.1000      0.1000      0.2000      0.2000      0.2000      0.2000      0.1000      0.1000       0.000    
   9    0.000      0.1000      0.1000      0.2000      0.2000      0.2000      0.2000      0.1000      0.1000       0.000    
  10    0.000      0.1000      0.1000      0.2000      0.2000      0.2000      0.2000      0.1000      0.1000      0.1000    
  11    0.000      0.1000      0.1000      0.2000      0.2000      0.2000      0.2000      0.1000      0.1000       0.000    
  12   0.1000      0.1000      0.2000      0.2000      0.2000      0.2000      0.2000      0.1000      0.1000       0.000    
  13   0.2000      0.2000      0.2000      0.2000      0.2000      0.2000      0.2000      0.2000      0.2000       0.000    
  14    0.000      0.1000      0.1000      0.1000      0.1000      0.1000      0.1000      0.1000      0.2000       0.000    
  15    0.000       0.000      0.1000      0.1000      0.1000      0.1000       0.000       0.000       0.000       0.000    

 GHB -- GENERAL-HEAD BOUNDARY PACKAGE, VERSION 7, 5/2/2005
         INPUT READ FROM UNIT   17
 No named parameters
 MAXIMUM OF      2 ACTIVE GHB CELLS AT ONE TIME
 CELL-BY-CELL FLOWS WILL BE PRINTED WHEN ICBCFL NOT 0


     0 GHB parameters

 SFR7 -- STREAMFLOW ROUTING PACKAGE, VERSION 1.0.5, 2012-04-05
         INPUT READ FROM UNIT  15
 #SFR2 Package input for Testing supplimental pumping and irrigation
 No named parameters

 PROCESSING SFR2 OPTIONS
 
 
Stream loss will be calculated as a factor of the streambed hydraulic conductivity. Multiplication factor is equal to     0.1000000015E+00
          2 Specified inflow files will be read with a maximum of        759 row entries per file

 END PROCESSING SFR2 OPTIONS
 


 NUMBER OF STREAM REACHES IS   37

 NUMBER OF STREAM SEGMENTS IS    9

 NUMBER OF STREAM PARAMETERS IS    0

 NUMBER OF STREAM SEGMENTS DEFINED USING PARAMETERS IS              0

 MAXIMUM ERROR FOR STREAM LEAKAGE RATES IS  1.00E-06

 CONSTANT FOR MANNINGS EQUATION IS  1.4860E+00



 STREAM OUTPUT WILL BE WRITTEN TO FILE ON UNIT   81


   STREAM NETWORK DESCRIPTION: 

   LAYER    ROW    COL   SEGMENT   REACH     LENGTH
                          NUMBER   NUMBER    IN CELL        
   --------------------------------------------------
      1      1      1       1        1    4.5000E+03
      1      2      2       1        2    7.0000E+03
      1      3      3       1        3    6.0000E+03
      1      3      4       1        4    5.5500E+03
      1      4      5       2        1    6.5000E+03
      1      5      6       2        2    5.0000E+03
      1      6      6       2        3    5.0000E+03
      1      7      6       2        4    5.0000E+03
      1      8      6       2        5    5.0000E+03
      1      3      5       3        1    5.0000E+03
      1      3      6       3        2    5.0000E+03
      1      3      7       3        3    4.5000E+03
      1      4      8       3        4    6.0000E+03
      1      5      8       3        5    5.0000E+03
      1      6      8       3        6    2.0000E+03
      1      5     10       4        1    2.5000E+03
      1      5      9       4        2    5.0000E+03
      1      6      8       4        3    3.5000E+03
      1      6      8       5        1    4.0000E+03
      1      7      7       5        2    5.0000E+03
      1      8      7       5        3    3.5000E+03
      1      8      6       5        4    2.5000E+03
      1      9      6       6        1    5.0000E+03
      1     10      7       6        2    5.0000E+03
      1     11      7       6        3    5.0000E+03
      1     12      7       6        4    5.0000E+03
      1     13      7       6        5    2.0000E+03
      1     14      9       7        1    5.0000E+03
      1     13      8       7        2    5.5000E+03
      1     13      7       7        3    5.0000E+03
      1     13      6       8        1    5.0000E+03
      1     13      5       8        2    5.0000E+03
      1     13      4       8        3    5.0000E+03
      1     13      3       8        4    5.0000E+03
      1     13      2       8        5    5.0000E+03
      1     13      1       8        6    3.0000E+03
      1      6      8       9        1    5.0000E+01




 UZF1 -- UNSATURATED FLOW PACKAGE, VERSION 1.4, 02/06/2012
         INPUT READ FROM UNIT 19
 #UZF Package input for test simulation 2
 No named parameters

 PROCESSING UZF OPTIONS
 
 
 INITIAL WATER CONTENT (THTI) WILL BE 
READ FOR THE FIRST SS OR TR STRESS PERIOD
 
 
 RESIDUAL WATER CONTENT (THTR) WILL BE 
READ AND USED FOR THE FIRST TRANSIENT STRESS 
PERIOD
 
 #etsquare    0.1
 
INFILTRATION WILL BE REJECTED USING 
LAND SURFACE K
 
 
HYDRAULIC CONDUCTIVITY OF LAND SURFACE 
WILL BE READ
 

 END PROCESSING UZF OPTIONS



            AREAL EXTENT OF UZ FLOW
 READING ON UNIT   19 WITH FORMAT: (20I4)              

                1           2           3           4           5           6           7           8           9          10
 ............................................................................................................................
   1            1           1           0           0           0           0           0           0           0           0
   2            1           1           1           0           0           1           1           1           0           0
   3            0           1           1           1           1           1           1           1           0           0
   4            1           1           1           1           1           1           1           1           1           0
   5            1           1           1           1           1           1           1           1           1           1
   6            1           1           1           1           1           1           1           1           1           1
   7            1           1           1           1           1           1           1           1           1           0
   8            0           1           1           1           1           1           1           1           1           0
   9            0           1           1           1           1           1           1           1           1           0
  10            0           1           1           1           1           1           1           1           1           1
  11            0           1           1           1           1           1           1           1           1           0
  12            1           1           1           1           1           1           1           1           1           0
  13            1           1           1           1           1           1           1           1           1           0
  14            0           1           1           1           1           1           1           1           1           0
  15            0           0           1           1           1           1           0           0           0           0
 OPTION 1 -- RECHARGE IN UZF TO TOP LAYER ONLY 



            ROUTING OVERLAND RUNOFF
 READING ON UNIT   19 WITH FORMAT: (20I4)              

                1           2           3           4           5           6           7           8           9          10
 ............................................................................................................................
   1            1           1           0           0           0           0           0           0           0           0
   2            1           1           1           0           0           3           3           3           0           0
   3            0           1           1           1           3           3           3           3           0           0
   4            8           8           2           2           2           2           2           3           3           0
   5            8           8           8           8           2           2           2           3           4           4
   6            8           8           8           8           8           2           2           4           4           4
   7            8           8           8           8           8           2           5           5           5           0
   8            0           8           8           8           8           2           5           5           5           0
   9            0           8           8           8           8           6           6           6           6           0
  10            0           8           8           8           8           6           6           6           6           6
  11            0           8           8           8           8           8           6           6           7           0
  12            8           8           8           8           8           8           6           7           7           0
  13            8           8           8           8           8           8           7           7           7           0
  14            0           8           8           8           8           8           7           7           7           0
  15            0           0           8           8           8           8           0           0           0           0



               SATURATED VERTICAL K
 READING ON UNIT   19 WITH FORMAT: (10F4.0)            

            1           2           3           4           5           6           7           8           9          10
 ........................................................................................................................
   1   1.0000E-05  1.0000E-05   0.000       0.000       0.000       0.000       0.000       0.000       0.000       0.000    
   2   1.0000E-05  1.0000E-05  1.0000E-05   0.000       0.000      1.0000E-05  1.0000E-05  1.0000E-05   0.000       0.000    
   3    0.000      1.0000E-05  1.0000E-05  1.0000E-05  1.0000E-05  1.0000E-05  1.0000E-05  1.0000E-05   0.000       0.000    
   4   1.0000E-05  1.0000E-05  1.0000E-05  1.0000E-05  1.0000E-05  1.0000E-05  1.0000E-05  1.0000E-05  1.0000E-05   0.000    
   5   1.0000E-05  1.0000E-05  1.0000E-05  1.0000E-05  1.0000E-05  1.0000E-05  1.0000E-05  1.0000E-05  1.0000E-05  1.0000E-05
   6   1.0000E-05  1.0000E-05  1.0000E-05  1.0000E-05  1.0000E-05  1.0000E-05  1.0000E-05  1.0000E-05  1.0000E-05  1.0000E-05
   7   1.0000E-05  1.0000E-05  1.0000E-05  1.0000E-05  1.0000E-05  1.0000E-05  1.0000E-05  1.0000E-05  1.0000E-05   0.000    
   8    0.000      1.0000E-05  1.0000E-05  1.0000E-05  1.0000E-05  1.0000E-05  1.0000E-05  1.0000E-05  1.0000E-05   0.000    
   9    0.000      1.0000E-05  1.0000E-05  1.0000E-05  1.0000E-05  1.0000E-05  1.0000E-05  1.0000E-05  1.0000E-05   0.000    
  10    0.000      1.0000E-05  1.0000E-05  1.0000E-05  1.0000E-05  1.0000E-05  1.0000E-05  1.0000E-05  1.0000E-05  1.0000E-05
  11    0.000      1.0000E-05  1.0000E-05  1.0000E-05  1.0000E-05  1.0000E-05  1.0000E-05  1.0000E-05  1.0000E-05   0.000    
  12   1.0000E-05  1.0000E-05  1.0000E-05  1.0000E-05  1.0000E-05  1.0000E-05  1.0000E-05  1.0000E-05  1.0000E-05   0.000    
  13   1.0000E-05  1.0000E-05  1.0000E-05  1.0000E-05  1.0000E-05  1.0000E-05  1.0000E-05  1.0000E-05  1.0000E-05   0.000    
  14    0.000      1.0000E-05  1.0000E-05  1.0000E-05  1.0000E-05  1.0000E-05  1.0000E-05  1.0000E-05  1.0000E-05   0.000    
  15    0.000       0.000      1.0000E-05  1.0000E-05  1.0000E-05  1.0000E-05   0.000       0.000       0.000       0.000    



            LAND SURFACE VERTICAL K
 READING ON UNIT   19 WITH FORMAT: (10F4.0)            

            1           2           3           4           5           6           7           8           9          10
 ........................................................................................................................
   1   1.0000E-05  1.0000E-05   0.000       0.000       0.000       0.000       0.000       0.000       0.000       0.000    
   2   1.0000E-05  1.0000E-05  1.0000E-05   0.000       0.000      1.0000E-05  1.0000E-05  1.0000E-05   0.000       0.000    
   3    0.000      1.0000E-05  1.0000E-05  1.0000E-05  1.0000E-05  1.0000E-05  1.0000E-05  1.0000E-05   0.000       0.000    
   4   1.0000E-05  1.0000E-05  1.0000E-05  1.0000E-05  1.0000E-05  1.0000E-05  1.0000E-05  1.0000E-05  1.0000E-05   0.000    
   5   1.0000E-05  1.0000E-05  1.0000E-05  1.0000E-05  1.0000E-05  1.0000E-05  1.0000E-05  1.0000E-05  1.0000E-05  1.0000E-05
   6   1.0000E-05  1.0000E-05  1.0000E-05  1.0000E-05  1.0000E-05  1.0000E-05  1.0000E-05  1.0000E-05  1.0000E-05  1.0000E-05
   7   1.0000E-05  1.0000E-05  1.0000E-05  1.0000E-05  1.0000E-05  1.0000E-05  1.0000E-05  1.0000E-05  1.0000E-05   0.000    
   8    0.000      1.0000E-05  1.0000E-05  1.0000E-05  1.0000E-05  1.0000E-05  1.0000E-05  1.0000E-05  1.0000E-05   0.000    
   9    0.000      1.0000E-05  1.0000E-05  1.0000E-05  1.0000E-05  1.0000E-05  1.0000E-05  1.0000E-05  1.0000E-05   0.000    
  10    0.000      1.0000E-05  1.0000E-05  1.0000E-05  1.0000E-05  1.0000E-05  1.0000E-05  1.0000E-05  1.0000E-05  1.0000E-05
  11    0.000      1.0000E-05  1.0000E-05  1.0000E-05  1.0000E-05  1.0000E-05  1.0000E-05  1.0000E-05  1.0000E-05   0.000    
  12   1.0000E-05  1.0000E-05  1.0000E-05  1.0000E-05  1.0000E-05  1.0000E-05  1.0000E-05  1.0000E-05  1.0000E-05   0.000    
  13   1.0000E-05  1.0000E-05  1.0000E-05  1.0000E-05  1.0000E-05  1.0000E-05  1.0000E-05  1.0000E-05  1.0000E-05   0.000    
  14    0.000      1.0000E-05  1.0000E-05  1.0000E-05  1.0000E-05  1.0000E-05  1.0000E-05  1.0000E-05  1.0000E-05   0.000    
  15    0.000       0.000      1.0000E-05  1.0000E-05  1.0000E-05  1.0000E-05   0.000       0.000       0.000       0.000    

     BROOKS-COREY EPSILON =   5.50000    

  SATURATED WATER CONTENT =  0.220000    

   RESIDUAL WATER CONTENT =  5.000000E-02

    INITIAL WATER CONTENT =  6.000000E-02

UNSATURATED FLOW RESULTS WILL BE PRINTED TO SEPARATE FILES FOR SELECTED MODEL CELLS, AND TIME STEPS AS DEFINED BY OUTPUT CONTROL PACKAGE 

SELECTED MODEL CELLS ARE: 
 ROW NUMBER  COLUMN NUMBER  FORTRAN UNIT NUMBER  OUTPUT OPTION


       6             4                 65                 1
       6             5                 66                 2
       8             4                 67                 3
       0             0                 68                 4



   9 GAGING STATIONS WERE SPECIFIED.
     (Lakes are identified by a negative value of the Lake Number)
     RECORDS WILL BE WRITTEN TO SEPARATE OUTPUT FILES REPRESENTED BY FOLLOWING UNIT NUMBERS:

 Stream Gages:
  GAGE #   SEGMENT   REACH   UNIT   OUTTYPE
       1       1       4      83       1
       2       2       3      84       1
       3       3       5      85       1
       4       4       3      86       1
       5       5       4      87       4
       6       6       5      88       4
       7       7       3      89       4
       8       8       6      90       4
       9       9       1      91       5





 AWU -- AWU PACKAGE FOR NWT VERSION 1.1.3,  8/01/2017 INPUT READ FROM UNIT   57
 # AWU options

 PROCESSING AWU OPTIONS
 
 AGRICULTURAL DEMANDS WILL BE CALCULATED USING ET DEFICIT
 
 
 OPTION TO APPLY SURFACE WATER AS IRRIGATION IS ACTIVE. DIVERTED SURFACE WATER WILL BE APPLIED TO          1 CELLS/RHUS.
 
 
 OPTION TO PUMP SUPPLEMENTARY WATER FOR SURFACE DIVERSION SHORTFALL IS ACTIVATED.  A TOTAL OF             6 SUPPLEMENTAL WELLS ARE ACTIVE
 
 
 OPTION TO APPLY PUMPED WATER AS IRRIGATION IS ACTIVE. PUMPED IRRIGATION WATER WILL BE APPLIED TO          6 CELLS/RHUS.
 
 
 THE MAXIMUM NUMBER OF WELLS FOR SUPPLEMENTING DIVERSIONS OR APPLYING IRRIGATION IS          6 WELLS.
 
 
  UNFORMATTED CELL BY CELL RATES FOR SUP AND IRR WELLS WILL BE SAVED TO FILE UNIT NUMBER         -2
 
 
  UNFORMATTED CELL BY CELL RATES FOR SUP AND IRR WELLS WILL BE SAVED TO FILE UNIT NUMBER         -2
 
 
  UNFORMATTED CELL BY CELL RATES FOR SUP AND IRR WELLS WILL BE SAVED TO FILE UNIT NUMBER         -2
 
 
  UNFORMATTED CELL BY CELL RATES FOR SUP AND IRR WELLS WILL BE SAVED TO FILE UNIT NUMBER         -2
 
 
  SURFACE WATER IRRIGATION, POTENTIAL AND ACTUAL ET WILL BE SAVED TO TIMES SERIES OUTPUT FILES.
 
 
  GROUND WATER IRRIGATION, POTENTIAL AND ACTUAL ET WILL BE SAVED TO TIMES SERIES OUTPUT FILES.
 

 END PROCESSING AWU OPTIONS
 # AWU time series

 PROCESSING TIME SERIES

 FINISHED READING TIME SERIES
 A total number of          1 AWU output time series files were activated for SURFACE WATER 
 A total number of          1 AWU output time series files were activated for GROUNDWATER 
1
                            STRESS PERIOD NO.    1, LENGTH =   86400.00    
                            -----------------------------------------------

                              NUMBER OF TIME STEPS =     1

                               MULTIPLIER FOR DELT =     1.000

                            INITIAL TIME STEP SIZE =   86400.00    

 BOUND. NO. LAYER   ROW   COL     STAGE      CONDUCTANCE         
 ----------------------------------------------------------------
      1      1     13      1       988.0          0.3800E-01
      2      1     14      9       1045.          0.3800E-01

      2 GHB CELLS



 CLASSIFICATION & COUNT OF STREAM SEGMENTS BASED ON SOURCE OF INFLOW:

                HEADWATER     DIVERSION     RECEIVES TRIBUTARY FLOW
                ---------     ---------     -----------------------
                     3              2               4



                    INPUT DATA FOR EACH STREAM SEGMENT
 ---------------------------------------------------------------------------------------------

 SEGMENT    SEG.     INFLOW   OVERLAND   STREAM    STREAM   ICALC  OUTFLOW  DIVERSION PRIORITY
    NO.    LENGTH     RATE     RUNOFF      ET       PPT.    METH.  TO SEG.  FROM SEG.    NO.

      1  2.305E+04 2.500E+01 0.000E+00 0.000E+00 0.000E+00    4        2        0        0
      2  2.650E+04 0.000E+00 0.000E+00 0.000E+00 0.000E+00    1        6        0        0
      3  2.750E+04 2.000E+00 0.000E+00 0.000E+00 0.000E+00    0        5        1        0
      4  1.100E+04 1.000E+01 0.000E+00 0.000E+00 0.000E+00    1        5        0        0
      5  1.500E+04 0.000E+00 0.000E+00 0.000E+00 0.000E+00    3        6        0        0
      6  2.200E+04 0.000E+00 0.000E+00 0.000E+00 0.000E+00    1        8        0        0
      7  1.550E+04 1.500E+02 0.000E+00 0.000E+00 0.000E+00    2        8        0        0
      8  2.800E+04 0.000E+00 0.000E+00 0.000E+00 0.000E+00    2        0        0        0
      9  5.000E+01 0.000E+00 0.000E+00 0.000E+00 0.000E+00    1        0        2        0


         STREAMBED PROPERTIES AND STREAM DIMENSIONS

 SEGMENT     BED HYD. COND.      BED THICKNESS     ELEV.-TOP OF BED     WIDTH OF STREAM     DEPTH OF STREAM    STREAM ROUGHNESS
    No.     UPPER     LOWER     UPPER     LOWER     UPPER     LOWER     UPPER     LOWER     UPPER     LOWER   CHANNEL      BANK

     1  3.000E-05 3.000E-05 3.000E+00 3.000E+00 1.095E+03 1.075E+03
     2  3.000E-05 3.000E-05 3.000E+00 3.000E+00 1.075E+03 1.050E+03 1.200E+01 1.200E+01                     3.000E-02
     3  3.000E-05 3.000E-05 2.000E+00 2.000E+00 1.075E+03 1.060E+03 1.000E+01 6.000E+00 2.000E+00 1.000E+00
     4  3.000E-05 3.000E-05 3.000E+00 3.000E+00 1.080E+03 1.060E+03 1.000E+01 1.000E+01                     3.000E-02
     5  3.000E-05 3.000E-05 3.000E+00 3.000E+00 1.060E+03 1.045E+03
     6  3.000E-05 3.000E-05 3.000E+00 3.000E+00 1.045E+03 1.025E+03 1.200E+01 1.200E+01                     3.000E-02
     7  6.000E-05 6.000E-05 3.000E+00 3.000E+00 1.040E+03 1.025E+03                                         2.500E-02 4.500E-02
     8  6.000E-05 6.000E-05 3.000E+00 3.000E+00 1.025E+03 9.900E+02                                         2.500E-02 4.500E-02
     9  0.000E+00 0.000E+00 3.000E+00 3.000E+00 1.079E+03 1.078E+03 4.000E+00 4.000E+00                     3.000E-02

  EIGHT POINT CROSS-SECTION DATA FOR SEGMENTS WITH ICALC = 2
    X VALUES X VALUES START FROM LEFT SIDE LOOKING DOWNSTREAM

     SEGMENT NO.        X1        X2        X3        X4        X5        X6        X7        X8
            7      0.000E+00 1.000E+01 8.000E+01 1.000E+02 1.500E+02 1.700E+02 2.400E+02 2.500E+02
            8      0.000E+00 1.000E+01 8.000E+01 1.000E+02 1.500E+02 1.700E+02 2.400E+02 2.500E+02

    Z VALUES ARE RELATIVE TO STREAMBED ELEVATION

     SEGMENT NO.          Z1        Z2        Z3        Z4        Z5        Z6        Z7        Z8
            7      2.000E+01 1.300E+01 1.000E+01 2.000E+00 0.000E+00 1.000E+01 1.300E+01 2.000E+01
            8      2.500E+01 1.700E+01 1.300E+01 4.000E+00 0.000E+00 1.000E+01 1.600E+01 2.000E+01

 STREAMFLOW RELATION WITH DEPTH IS BASED ON EQUATION Q = CDPTH*(DEPTH)**FDPTH
 STREAMFLOW RELATION WITH WIDTH IS BASED ON EQUATION Q = AWDTH*(WIDTH)**BWDTH

 SEGMENT NO.      CDPTH     FDPTH    AWDTH     BWDTH

          5 3.000E-01 3.500E-01 3.800E+00 6.000E-01

 STREAMFLOW RELATION WITH DEPTH AND WIDTH IS BASED ON TABULATED VALUES

  SEGMENT NO.   STREAMFLOW       DEPTH       WIDTH

          1     5.0000E-01   2.5000E-01   3.0000E+00
          1     1.0000E+00   4.0000E-01   3.5000E+00
          1     2.0000E+00   5.5000E-01   4.2000E+00
          1     4.0000E+00   7.0000E-01   5.3000E+00
          1     7.0000E+00   8.0000E-01   7.0000E+00
          1     1.0000E+01   9.0000E-01   8.5000E+00
          1     2.0000E+01   1.1000E+00   1.2000E+01
          1     3.0000E+01   1.2500E+00   1.4000E+01
          1     5.0000E+01   1.4000E+00   1.7000E+01
          1     7.5000E+01   1.7000E+00   2.0000E+01
          1     1.0000E+02   1.8000E+00   2.2000E+01



TABULAR INFLOWS WERE READ FOR SEGMENT      1
FROM FILE UNIT NUMBER     55

          TIMES                    INFLOWS
             0.0000000000         5.0000000000
       2630000.0000000000        22.0000000000
       5260000.0000000000        42.0000000000
       7880000.0000000000        77.0000000000
      10500000.0000000000        28.0000000000
      13100000.0000000000        99.0000000000
      15800000.0000000000        63.0000000000
      18400000.0000000000        35.0000000000
      21000000.0000000000        21.0000000000
      23700000.0000000000         7.0000000000
      26300000.0000000000         3.5000000000
      28900000.0000000000         3.2999999523
      31500000.0000000000         3.0999999046
      34200000.0000000000        10.5000000000
      36800000.0000000000        21.0000000000
      39400000.0000000000        98.0000000000
      42000000.0000000000        35.0000000000
      44700000.0000000000        63.0000000000
      47300000.0000000000        28.0000000000
      49900000.0000000000        14.0000000000
      52600000.0000000000         7.0000000000
      55200000.0000000000         3.5000000000
      57800000.0000000000         3.2000000477
      60400000.0000000000         3.5000000000
      63100000.0000000000         3.5000000000
      65700000.0000000000        14.0000000000
TABULAR INFLOWS WERE READ FOR SEGMENT      9
FROM FILE UNIT NUMBER     56

          TIMES                    INFLOWS
             0.0000000000         0.0000000000
         86400.0000000000         0.0000000000
        173000.0000000000         0.0000000000
        259000.0000000000         0.0000000000
        346000.0000000000         0.0000000000
        432000.0000000000         0.0000000000
        518000.0000000000         0.0000000000
        605000.0000000000         0.0000000000
        691000.0000000000         0.0000000000
        778000.0000000000         0.0000000000
        864000.0000000000         0.0000000000
        950000.0000000000         0.0000000000
       1040000.0000000000         0.0000000000
       1120000.0000000000         0.0000000000
       1210000.0000000000         0.0000000000
       1300000.0000000000         0.0000000000
       1380000.0000000000         0.0000000000
       1470000.0000000000         0.0000000000
       1560000.0000000000         0.0000000000
       1640000.0000000000         0.0000000000
       1730000.0000000000         0.0000000000
       1810000.0000000000         0.0000000000
       1900000.0000000000         0.0000000000
       1990000.0000000000         0.0000000000
       2070000.0000000000         0.0000000000
       2160000.0000000000         0.0000000000
       2250000.0000000000         0.0000000000
       2330000.0000000000         0.0000000000
       2420000.0000000000         0.0000000000
       2510000.0000000000         0.0000000000
       2590000.0000000000         0.0000000000
       2680000.0000000000         0.0000000000
       2760000.0000000000         0.0000000000
       2850000.0000000000         0.0000000000
       2940000.0000000000         0.0000000000
       3020000.0000000000         0.0000000000
       3110000.0000000000         0.0000000000
       3200000.0000000000         0.0000000000
       3280000.0000000000         0.0000000000
       3370000.0000000000         0.0000000000
       3460000.0000000000         0.0000000000
       3540000.0000000000         0.0000000000
       3630000.0000000000         0.0000000000
       3720000.0000000000         0.0000000000
       3800000.0000000000         0.0000000000
       3890000.0000000000         0.0000000000
       3970000.0000000000         0.0000000000
       4060000.0000000000         0.0000000000
       4150000.0000000000         0.0000000000
       4230000.0000000000         0.0000000000
       4320000.0000000000         0.0000000000
       4410000.0000000000         0.0000000000
       4490000.0000000000         0.0000000000
       4580000.0000000000         0.0000000000
       4670000.0000000000         0.0000000000
       4750000.0000000000         0.0000000000
       4840000.0000000000         0.0000000000
       4920000.0000000000         0.0000000000
       5010000.0000000000         0.0000000000
       5100000.0000000000         0.0000000000
       5180000.0000000000         0.0000000000
       5270000.0000000000         0.0000000000
       5360000.0000000000         0.0000000000
       5440000.0000000000         0.0000000000
       5530000.0000000000         0.0000000000
       5620000.0000000000         0.0000000000
       5700000.0000000000         0.0000000000
       5790000.0000000000         0.0000000000
       5880000.0000000000         0.0000000000
       5960000.0000000000         0.0000000000
       6050000.0000000000         0.0000000000
       6130000.0000000000         0.0000000000
       6220000.0000000000         0.0000000000
       6310000.0000000000         0.0000000000
       6390000.0000000000         0.0000000000
       6480000.0000000000         0.0000000000
       6570000.0000000000         0.0000000000
       6650000.0000000000         0.0000000000
       6740000.0000000000         0.0000000000
       6830000.0000000000         0.0000000000
       6910000.0000000000         0.0000000000
       7000000.0000000000         0.0000000000
       7080000.0000000000         0.0000000000
       7170000.0000000000         0.0000000000
       7260000.0000000000         0.0000000000
       7340000.0000000000         0.0000000000
       7430000.0000000000         0.0000000000
       7520000.0000000000         0.0000000000
       7600000.0000000000         0.0000000000
       7690000.0000000000         0.0000000000
       7780000.0000000000         0.0000000000
       7860000.0000000000        20.0000000000
       7950000.0000000000        20.0000000000
       8040000.0000000000        20.0000000000
       8120000.0000000000        20.0000000000
       8210000.0000000000        20.0000000000
       8290000.0000000000        20.0000000000
       8380000.0000000000        20.0000000000
       8470000.0000000000         0.0000000000
       8550000.0000000000         0.0000000000
       8640000.0000000000         0.0000000000
       8730000.0000000000         0.0000000000
       8810000.0000000000         0.0000000000
       8900000.0000000000         0.0000000000
       8990000.0000000000         0.0000000000
       9070000.0000000000        20.0000000000
       9160000.0000000000        20.0000000000
       9240000.0000000000        20.0000000000
       9330000.0000000000        20.0000000000
       9420000.0000000000        20.0000000000
       9500000.0000000000        20.0000000000
       9590000.0000000000        20.0000000000
       9680000.0000000000         0.0000000000
       9760000.0000000000         0.0000000000
       9850000.0000000000         0.0000000000
       9940000.0000000000         0.0000000000
      10000000.0000000000         0.0000000000
      10100000.0000000000         0.0000000000
      10200000.0000000000         0.0000000000
      10300000.0000000000         0.0000000000
      10400000.0000000000         0.0000000000
      10500000.0000000000        20.0000000000
      10500000.0000000000        20.0000000000
      10600000.0000000000        20.0000000000
      10700000.0000000000        20.0000000000
      10800000.0000000000        20.0000000000
      10900000.0000000000        20.0000000000
      11000000.0000000000        20.0000000000
      11100000.0000000000         0.0000000000
      11100000.0000000000         0.0000000000
      11200000.0000000000         0.0000000000
      11300000.0000000000         0.0000000000
      11400000.0000000000         0.0000000000
      11500000.0000000000         0.0000000000
      11600000.0000000000         0.0000000000
      11700000.0000000000        20.0000000000
      11800000.0000000000        20.0000000000
      11800000.0000000000        20.0000000000
      11900000.0000000000        20.0000000000
      12000000.0000000000        20.0000000000
      12100000.0000000000        20.0000000000
      12200000.0000000000        20.0000000000
      12300000.0000000000         0.0000000000
      12400000.0000000000         0.0000000000
      12400000.0000000000         0.0000000000
      12500000.0000000000         0.0000000000
      12600000.0000000000         0.0000000000
      12700000.0000000000         0.0000000000
      12800000.0000000000         0.0000000000
      12900000.0000000000        20.0000000000
      13000000.0000000000        20.0000000000
      13000000.0000000000        20.0000000000
      13100000.0000000000        20.0000000000
      13200000.0000000000        20.0000000000
      13300000.0000000000        20.0000000000
      13400000.0000000000        20.0000000000
      13500000.0000000000         0.0000000000
      13600000.0000000000         0.0000000000
      13700000.0000000000         0.0000000000
      13700000.0000000000         0.0000000000
      13800000.0000000000         0.0000000000
      13900000.0000000000         0.0000000000
      14000000.0000000000         0.0000000000
      14100000.0000000000        20.0000000000
      14200000.0000000000        20.0000000000
      14300000.0000000000        20.0000000000
      14300000.0000000000        20.0000000000
      14400000.0000000000        20.0000000000
      14500000.0000000000        20.0000000000
      14600000.0000000000        20.0000000000
      14700000.0000000000         0.0000000000
      14800000.0000000000         0.0000000000
      14900000.0000000000         0.0000000000
      14900000.0000000000         0.0000000000
      15000000.0000000000         0.0000000000
      15100000.0000000000         0.0000000000
      15200000.0000000000         0.0000000000
      15300000.0000000000        20.0000000000
      15400000.0000000000        20.0000000000
      15500000.0000000000        20.0000000000
      15600000.0000000000        20.0000000000
      15600000.0000000000        20.0000000000
      15700000.0000000000        20.0000000000
      15800000.0000000000        20.0000000000
      15900000.0000000000         0.0000000000
      16000000.0000000000         0.0000000000
      16100000.0000000000         0.0000000000
      16200000.0000000000         0.0000000000
      16200000.0000000000         0.0000000000
      16300000.0000000000         0.0000000000
      16400000.0000000000         0.0000000000
      16500000.0000000000        20.0000000000
      16600000.0000000000        20.0000000000
      16700000.0000000000        20.0000000000
      16800000.0000000000        20.0000000000
      16800000.0000000000        20.0000000000
      16900000.0000000000        20.0000000000
      17000000.0000000000        20.0000000000
      17100000.0000000000         0.0000000000
      17200000.0000000000         0.0000000000
      17300000.0000000000         0.0000000000
      17400000.0000000000         0.0000000000
      17500000.0000000000         0.0000000000
      17500000.0000000000         0.0000000000
      17600000.0000000000         0.0000000000
      17700000.0000000000        20.0000000000
      17800000.0000000000        20.0000000000
      17900000.0000000000        20.0000000000
      18000000.0000000000        20.0000000000
      18100000.0000000000        20.0000000000
      18100000.0000000000        20.0000000000
      18200000.0000000000        20.0000000000
      18300000.0000000000         0.0000000000
      18400000.0000000000         0.0000000000
      18500000.0000000000         0.0000000000
      18600000.0000000000         0.0000000000
      18700000.0000000000         0.0000000000
      18700000.0000000000         0.0000000000
      18800000.0000000000         0.0000000000
      18900000.0000000000        20.0000000000
      19000000.0000000000        20.0000000000
      19100000.0000000000        20.0000000000
      19200000.0000000000        20.0000000000
      19300000.0000000000        20.0000000000
      19400000.0000000000        20.0000000000
      19400000.0000000000        20.0000000000
      19500000.0000000000         0.0000000000
      19600000.0000000000         0.0000000000
      19700000.0000000000         0.0000000000
      19800000.0000000000         0.0000000000
      19900000.0000000000         0.0000000000
      20000000.0000000000         0.0000000000
      20000000.0000000000         0.0000000000
      20100000.0000000000        20.0000000000
      20200000.0000000000        20.0000000000
      20300000.0000000000        20.0000000000
      20400000.0000000000        20.0000000000
      20500000.0000000000        20.0000000000
      20600000.0000000000        20.0000000000
      20600000.0000000000        20.0000000000
      20700000.0000000000         0.0000000000
      20800000.0000000000         0.0000000000
      20900000.0000000000         0.0000000000
      21000000.0000000000         0.0000000000
      21100000.0000000000         0.0000000000
      21200000.0000000000         0.0000000000
      21300000.0000000000         0.0000000000
      21300000.0000000000        20.0000000000
      21400000.0000000000        20.0000000000
      21500000.0000000000        20.0000000000
      21600000.0000000000        20.0000000000
      21700000.0000000000        20.0000000000
      21800000.0000000000        20.0000000000
      21900000.0000000000        20.0000000000
      21900000.0000000000         0.0000000000
      22000000.0000000000         0.0000000000
      22100000.0000000000         0.0000000000
      22200000.0000000000         0.0000000000
      22300000.0000000000         0.0000000000
      22400000.0000000000         0.0000000000
      22500000.0000000000         0.0000000000
      22600000.0000000000        20.0000000000
      22600000.0000000000        20.0000000000
      22700000.0000000000        20.0000000000
      22800000.0000000000        20.0000000000
      22900000.0000000000        20.0000000000
      23000000.0000000000        20.0000000000
      23100000.0000000000        20.0000000000
      23200000.0000000000         0.0000000000
      23200000.0000000000         0.0000000000
      23300000.0000000000         0.0000000000
      23400000.0000000000         0.0000000000
      23500000.0000000000         0.0000000000
      23600000.0000000000         0.0000000000
      23700000.0000000000         0.0000000000
      23800000.0000000000         0.0000000000
      23800000.0000000000         0.0000000000
      23900000.0000000000         0.0000000000
      24000000.0000000000         0.0000000000
      24100000.0000000000         0.0000000000
      24200000.0000000000         0.0000000000
      24300000.0000000000         0.0000000000
      24400000.0000000000         0.0000000000
      24500000.0000000000         0.0000000000
      24500000.0000000000         0.0000000000
      24600000.0000000000         0.0000000000
      24700000.0000000000         0.0000000000
      24800000.0000000000         0.0000000000
      24900000.0000000000         0.0000000000
      25000000.0000000000         0.0000000000
      25100000.0000000000         0.0000000000
      25100000.0000000000         0.0000000000
      25200000.0000000000         0.0000000000
      25300000.0000000000         0.0000000000
      25400000.0000000000         0.0000000000
      25500000.0000000000         0.0000000000
      25600000.0000000000         0.0000000000
      25700000.0000000000         0.0000000000
      25700000.0000000000         0.0000000000
      25800000.0000000000         0.0000000000
      25900000.0000000000         0.0000000000
      26000000.0000000000         0.0000000000
      26100000.0000000000         0.0000000000
      26200000.0000000000         0.0000000000
      26300000.0000000000         0.0000000000
      26400000.0000000000         0.0000000000
      26400000.0000000000         0.0000000000
      26500000.0000000000         0.0000000000
      26600000.0000000000         0.0000000000
      26700000.0000000000         0.0000000000
      26800000.0000000000         0.0000000000
      26900000.0000000000         0.0000000000
      27000000.0000000000         0.0000000000
      27000000.0000000000         0.0000000000
      27100000.0000000000         0.0000000000
      27200000.0000000000         0.0000000000
      27300000.0000000000         0.0000000000
      27400000.0000000000         0.0000000000
      27500000.0000000000         0.0000000000
      27600000.0000000000         0.0000000000
      27600000.0000000000         0.0000000000
      27700000.0000000000         0.0000000000
      27800000.0000000000         0.0000000000
      27900000.0000000000         0.0000000000
      28000000.0000000000         0.0000000000
      28100000.0000000000         0.0000000000
      28200000.0000000000         0.0000000000
      28300000.0000000000         0.0000000000
      28300000.0000000000         0.0000000000
      28400000.0000000000         0.0000000000
      28500000.0000000000         0.0000000000
      28600000.0000000000         0.0000000000
      28700000.0000000000         0.0000000000
      28800000.0000000000         0.0000000000
      28900000.0000000000         0.0000000000
      28900000.0000000000         0.0000000000
      29000000.0000000000         0.0000000000
      29100000.0000000000         0.0000000000
      29200000.0000000000         0.0000000000
      29300000.0000000000         0.0000000000
      29400000.0000000000         0.0000000000
      29500000.0000000000         0.0000000000
      29500000.0000000000         0.0000000000
      29600000.0000000000         0.0000000000
      29700000.0000000000         0.0000000000
      29800000.0000000000         0.0000000000
      29900000.0000000000         0.0000000000
      30000000.0000000000         0.0000000000
      30100000.0000000000         0.0000000000
      30200000.0000000000         0.0000000000
      30200000.0000000000         0.0000000000
      30300000.0000000000         0.0000000000
      30400000.0000000000         0.0000000000
      30500000.0000000000         0.0000000000
      30600000.0000000000         0.0000000000
      30700000.0000000000         0.0000000000
      30800000.0000000000         0.0000000000
      30800000.0000000000         0.0000000000
      30900000.0000000000         0.0000000000
      31000000.0000000000         0.0000000000
      31100000.0000000000         0.0000000000
      31200000.0000000000         0.0000000000
      31300000.0000000000         0.0000000000
      31400000.0000000000         0.0000000000
      31400000.0000000000         0.0000000000
      31500000.0000000000         0.0000000000
      31600000.0000000000         0.0000000000
      31700000.0000000000         0.0000000000
      31800000.0000000000         0.0000000000
      31900000.0000000000         0.0000000000
      32000000.0000000000         0.0000000000
      32100000.0000000000         0.0000000000
      32100000.0000000000         0.0000000000
      32200000.0000000000         0.0000000000
      32300000.0000000000         0.0000000000
      32400000.0000000000         0.0000000000
      32500000.0000000000         0.0000000000
      32600000.0000000000         0.0000000000
      32700000.0000000000         0.0000000000
      32700000.0000000000         0.0000000000
      32800000.0000000000         0.0000000000
      32900000.0000000000         0.0000000000
      33000000.0000000000         0.0000000000
      33100000.0000000000         0.0000000000
      33200000.0000000000         0.0000000000
      33300000.0000000000         0.0000000000
      33400000.0000000000         0.0000000000
      33400000.0000000000         0.0000000000
      33500000.0000000000         0.0000000000
      33600000.0000000000         0.0000000000
      33700000.0000000000         0.0000000000
      33800000.0000000000         0.0000000000
      33900000.0000000000         0.0000000000
      34000000.0000000000         0.0000000000
      34000000.0000000000         0.0000000000
      34100000.0000000000         0.0000000000
      34200000.0000000000         0.0000000000
      34300000.0000000000         0.0000000000
      34400000.0000000000         0.0000000000
      34500000.0000000000         0.0000000000
      34600000.0000000000         0.0000000000
      34600000.0000000000         0.0000000000
      34700000.0000000000         0.0000000000
      34800000.0000000000         0.0000000000
      34900000.0000000000         0.0000000000
      35000000.0000000000         0.0000000000
      35100000.0000000000         0.0000000000
      35200000.0000000000         0.0000000000
      35300000.0000000000         0.0000000000
      35300000.0000000000         0.0000000000
      35400000.0000000000         0.0000000000
      35500000.0000000000         0.0000000000
      35600000.0000000000         0.0000000000
      35700000.0000000000         0.0000000000
      35800000.0000000000         0.0000000000
      35900000.0000000000         0.0000000000
      35900000.0000000000         0.0000000000
      36000000.0000000000         0.0000000000
      36100000.0000000000         0.0000000000
      36200000.0000000000         0.0000000000
      36300000.0000000000         0.0000000000
      36400000.0000000000         0.0000000000
      36500000.0000000000         0.0000000000
      36500000.0000000000         0.0000000000
      36600000.0000000000         0.0000000000
      36700000.0000000000         0.0000000000
      36800000.0000000000         0.0000000000
      36900000.0000000000         0.0000000000
      37000000.0000000000         0.0000000000
      37100000.0000000000         0.0000000000
      37200000.0000000000         0.0000000000
      37200000.0000000000         0.0000000000
      37300000.0000000000         0.0000000000
      37400000.0000000000         0.0000000000
      37500000.0000000000         0.0000000000
      37600000.0000000000         0.0000000000
      37700000.0000000000         0.0000000000
      37800000.0000000000         0.0000000000
      37800000.0000000000         0.0000000000
      37900000.0000000000         0.0000000000
      38000000.0000000000         0.0000000000
      38100000.0000000000         0.0000000000
      38200000.0000000000         0.0000000000
      38300000.0000000000         0.0000000000
      38400000.0000000000         0.0000000000
      38400000.0000000000         0.0000000000
      38500000.0000000000         0.0000000000
      38600000.0000000000         0.0000000000
      38700000.0000000000         0.0000000000
      38800000.0000000000         0.0000000000
      38900000.0000000000         0.0000000000
      39000000.0000000000        20.0000000000
      39100000.0000000000        20.0000000000
      39100000.0000000000        20.0000000000
      39200000.0000000000        20.0000000000
      39300000.0000000000        20.0000000000
      39400000.0000000000        20.0000000000
      39500000.0000000000        20.0000000000
      39600000.0000000000         0.0000000000
      39700000.0000000000         0.0000000000
      39700000.0000000000         0.0000000000
      39800000.0000000000         0.0000000000
      39900000.0000000000         0.0000000000
      40000000.0000000000         0.0000000000
      40100000.0000000000         0.0000000000
      40200000.0000000000        20.0000000000
      40300000.0000000000        20.0000000000
      40300000.0000000000        20.0000000000
      40400000.0000000000        20.0000000000
      40500000.0000000000        20.0000000000
      40600000.0000000000        20.0000000000
      40700000.0000000000        20.0000000000
      40800000.0000000000         0.0000000000
      40900000.0000000000         0.0000000000
      41000000.0000000000         0.0000000000
      41000000.0000000000         0.0000000000
      41100000.0000000000         0.0000000000
      41200000.0000000000         0.0000000000
      41300000.0000000000         0.0000000000
      41400000.0000000000         0.0000000000
      41500000.0000000000         0.0000000000
      41600000.0000000000        20.0000000000
      41600000.0000000000        20.0000000000
      41700000.0000000000        20.0000000000
      41800000.0000000000        20.0000000000
      41900000.0000000000        20.0000000000
      42000000.0000000000        20.0000000000
      42100000.0000000000        20.0000000000
      42200000.0000000000         0.0000000000
      42200000.0000000000         0.0000000000
      42300000.0000000000         0.0000000000
      42400000.0000000000         0.0000000000
      42500000.0000000000         0.0000000000
      42600000.0000000000         0.0000000000
      42700000.0000000000         0.0000000000
      42800000.0000000000        20.0000000000
      42900000.0000000000        20.0000000000
      42900000.0000000000        20.0000000000
      43000000.0000000000        20.0000000000
      43100000.0000000000        20.0000000000
      43200000.0000000000        20.0000000000
      43300000.0000000000        20.0000000000
      43400000.0000000000         0.0000000000
      43500000.0000000000         0.0000000000
      43500000.0000000000         0.0000000000
      43600000.0000000000         0.0000000000
      43700000.0000000000         0.0000000000
      43800000.0000000000         0.0000000000
      43900000.0000000000         0.0000000000
      44000000.0000000000        20.0000000000
      44100000.0000000000        20.0000000000
      44200000.0000000000        20.0000000000
      44200000.0000000000        20.0000000000
      44300000.0000000000        20.0000000000
      44400000.0000000000        20.0000000000
      44500000.0000000000        20.0000000000
      44600000.0000000000         0.0000000000
      44700000.0000000000         0.0000000000
      44800000.0000000000         0.0000000000
      44800000.0000000000         0.0000000000
      44900000.0000000000         0.0000000000
      45000000.0000000000         0.0000000000
      45100000.0000000000         0.0000000000
      45200000.0000000000        20.0000000000
      45300000.0000000000        20.0000000000
      45400000.0000000000        20.0000000000
      45400000.0000000000        20.0000000000
      45500000.0000000000        20.0000000000
      45600000.0000000000        20.0000000000
      45700000.0000000000        20.0000000000
      45800000.0000000000         0.0000000000
      45900000.0000000000         0.0000000000
      46000000.0000000000         0.0000000000
      46100000.0000000000         0.0000000000
      46100000.0000000000         0.0000000000
      46200000.0000000000         0.0000000000
      46300000.0000000000         0.0000000000
      46400000.0000000000        20.0000000000
      46500000.0000000000        20.0000000000
      46600000.0000000000        20.0000000000
      46700000.0000000000        20.0000000000
      46700000.0000000000        20.0000000000
      46800000.0000000000        20.0000000000
      46900000.0000000000        20.0000000000
      47000000.0000000000         0.0000000000
      47100000.0000000000         0.0000000000
      47200000.0000000000         0.0000000000
      47300000.0000000000         0.0000000000
      47300000.0000000000         0.0000000000
      47400000.0000000000         0.0000000000
      47500000.0000000000         0.0000000000
      47600000.0000000000        20.0000000000
      47700000.0000000000        20.0000000000
      47800000.0000000000        20.0000000000
      47900000.0000000000        20.0000000000
      48000000.0000000000        20.0000000000
      48000000.0000000000        20.0000000000
      48100000.0000000000        20.0000000000
      48200000.0000000000         0.0000000000
      48300000.0000000000         0.0000000000
      48400000.0000000000         0.0000000000
      48500000.0000000000         0.0000000000
      48600000.0000000000         0.0000000000
      48600000.0000000000         0.0000000000
      48700000.0000000000         0.0000000000
      48800000.0000000000        20.0000000000
      48900000.0000000000        20.0000000000
      49000000.0000000000        20.0000000000
      49100000.0000000000        20.0000000000
      49200000.0000000000        20.0000000000
      49200000.0000000000        20.0000000000
      49300000.0000000000        20.0000000000
      49400000.0000000000         0.0000000000
      49500000.0000000000         0.0000000000
      49600000.0000000000         0.0000000000
      49700000.0000000000         0.0000000000
      49800000.0000000000         0.0000000000
      49900000.0000000000         0.0000000000
      49900000.0000000000         0.0000000000
      50000000.0000000000        20.0000000000
      50100000.0000000000        20.0000000000
      50200000.0000000000        20.0000000000
      50300000.0000000000        20.0000000000
      50400000.0000000000        20.0000000000
      50500000.0000000000        20.0000000000
      50500000.0000000000        20.0000000000
      50600000.0000000000         0.0000000000
      50700000.0000000000         0.0000000000
      50800000.0000000000         0.0000000000
      50900000.0000000000         0.0000000000
      51000000.0000000000         0.0000000000
      51100000.0000000000         0.0000000000
      51100000.0000000000         0.0000000000
      51200000.0000000000        20.0000000000
      51300000.0000000000        20.0000000000
      51400000.0000000000        20.0000000000
      51500000.0000000000        20.0000000000
      51600000.0000000000        20.0000000000
      51700000.0000000000        20.0000000000
      51800000.0000000000        20.0000000000
      51800000.0000000000         0.0000000000
      51900000.0000000000         0.0000000000
      52000000.0000000000         0.0000000000
      52100000.0000000000         0.0000000000
      52200000.0000000000         0.0000000000
      52300000.0000000000         0.0000000000
      52400000.0000000000         0.0000000000
      52400000.0000000000        20.0000000000
      52500000.0000000000        20.0000000000
      52600000.0000000000        20.0000000000
      52700000.0000000000        20.0000000000
      52800000.0000000000        20.0000000000
      52900000.0000000000        20.0000000000
      53000000.0000000000        20.0000000000
      53000000.0000000000         0.0000000000
      53100000.0000000000         0.0000000000
      53200000.0000000000         0.0000000000
      53300000.0000000000         0.0000000000
      53400000.0000000000         0.0000000000
      53500000.0000000000         0.0000000000
      53600000.0000000000         0.0000000000
      53700000.0000000000        20.0000000000
      53700000.0000000000        20.0000000000
      53800000.0000000000        20.0000000000
      53900000.0000000000        20.0000000000
      54000000.0000000000        20.0000000000
      54100000.0000000000        20.0000000000
      54200000.0000000000        20.0000000000
      54300000.0000000000         0.0000000000
      54300000.0000000000         0.0000000000
      54400000.0000000000         0.0000000000
      54500000.0000000000         0.0000000000
      54600000.0000000000         0.0000000000
      54700000.0000000000         0.0000000000
      54800000.0000000000         0.0000000000
      54900000.0000000000         0.0000000000
      55000000.0000000000         0.0000000000
      55000000.0000000000         0.0000000000
      55100000.0000000000         0.0000000000
      55200000.0000000000         0.0000000000
      55300000.0000000000         0.0000000000
      55400000.0000000000         0.0000000000
      55500000.0000000000         0.0000000000
      55600000.0000000000         0.0000000000
      55600000.0000000000         0.0000000000
      55700000.0000000000         0.0000000000
      55800000.0000000000         0.0000000000
      55900000.0000000000         0.0000000000
      56000000.0000000000         0.0000000000
      56100000.0000000000         0.0000000000
      56200000.0000000000         0.0000000000
      56200000.0000000000         0.0000000000
      56300000.0000000000         0.0000000000
      56400000.0000000000         0.0000000000
      56500000.0000000000         0.0000000000
      56600000.0000000000         0.0000000000
      56700000.0000000000         0.0000000000
      56800000.0000000000         0.0000000000
      56900000.0000000000         0.0000000000
      56900000.0000000000         0.0000000000
      57000000.0000000000         0.0000000000
      57100000.0000000000         0.0000000000
      57200000.0000000000         0.0000000000
      57300000.0000000000         0.0000000000
      57400000.0000000000         0.0000000000
      57500000.0000000000         0.0000000000
      57500000.0000000000         0.0000000000
      57600000.0000000000         0.0000000000
      57700000.0000000000         0.0000000000
      57800000.0000000000         0.0000000000
      57900000.0000000000         0.0000000000
      58000000.0000000000         0.0000000000
      58100000.0000000000         0.0000000000
      58100000.0000000000         0.0000000000
      58200000.0000000000         0.0000000000
      58300000.0000000000         0.0000000000
      58400000.0000000000         0.0000000000
      58500000.0000000000         0.0000000000
      58600000.0000000000         0.0000000000
      58700000.0000000000         0.0000000000
      58800000.0000000000         0.0000000000
      58800000.0000000000         0.0000000000
      58900000.0000000000         0.0000000000
      59000000.0000000000         0.0000000000
      59100000.0000000000         0.0000000000
      59200000.0000000000         0.0000000000
      59300000.0000000000         0.0000000000
      59400000.0000000000         0.0000000000
      59400000.0000000000         0.0000000000
      59500000.0000000000         0.0000000000
      59600000.0000000000         0.0000000000
      59700000.0000000000         0.0000000000
      59800000.0000000000         0.0000000000
      59900000.0000000000         0.0000000000
      60000000.0000000000         0.0000000000
      60000000.0000000000         0.0000000000
      60100000.0000000000         0.0000000000
      60200000.0000000000         0.0000000000
      60300000.0000000000         0.0000000000
      60400000.0000000000         0.0000000000
      60500000.0000000000         0.0000000000
      60600000.0000000000         0.0000000000
      60700000.0000000000         0.0000000000
      60700000.0000000000         0.0000000000
      60800000.0000000000         0.0000000000
      60900000.0000000000         0.0000000000
      61000000.0000000000         0.0000000000
      61100000.0000000000         0.0000000000
      61200000.0000000000         0.0000000000
      61300000.0000000000         0.0000000000
      61300000.0000000000         0.0000000000
      61400000.0000000000         0.0000000000
      61500000.0000000000         0.0000000000
      61600000.0000000000         0.0000000000
      61700000.0000000000         0.0000000000
      61800000.0000000000         0.0000000000
      61900000.0000000000         0.0000000000
      61900000.0000000000         0.0000000000
      62000000.0000000000         0.0000000000
      62100000.0000000000         0.0000000000
      62200000.0000000000         0.0000000000
      62300000.0000000000         0.0000000000
      62400000.0000000000         0.0000000000
      62500000.0000000000         0.0000000000
[...]
          0                 2           2             2    2     1       0.1773703783E-03       2    2    1         0.9336973558E-02      0.2028237292E-01
          0                 3           1             2    2     1      -0.1581980867E-04       2    2    1        -0.8403266300E-03      0.1820993158E-02

    ------------------------------------------------
       NWT REQUIRED            3 OUTER ITERATIONS 
       AND A TOTAL OF          5 INNER ITERATIONS.
    ------------------------------------------------

 NO OUTPUT CONTROL FOR STRESS PERIOD   25   TIME STEP   23
 
 SOLVING FOR HEAD 
                                                   Max.-Head-Change                         Max.-Flux-Residual
  Residual-Control   Outer-Iter.   Inner-Iter.     Column Row Layer    Maximum-Head-Change  Column Row Layer    Maximum-Flux-Residual          L2-NORM 
          0                 1           2             2    2     1      -0.1780480549E-02       2    2    1        -0.9290390943E-01      0.2037263124E+00
          0                 2           2             2    2     1       0.1764913294E-03       2    2    1         0.9290389969E-02      0.2012299566E-01
          0                 3           1             2    2     1      -0.1574140033E-04       2    2    1        -0.8361341181E-03      0.1806628188E-02

    ------------------------------------------------
       NWT REQUIRED            3 OUTER ITERATIONS 
       AND A TOTAL OF          5 INNER ITERATIONS.
    ------------------------------------------------

 NO OUTPUT CONTROL FOR STRESS PERIOD   25   TIME STEP   24
 
 SOLVING FOR HEAD 
                                                   Max.-Head-Change                         Max.-Flux-Residual
  Residual-Control   Outer-Iter.   Inner-Iter.     Column Row Layer    Maximum-Head-Change  Column Row Layer    Maximum-Flux-Residual          L2-NORM 
          0                 1           2             2    2     1      -0.1771724132E-02       2    2    1        -0.9244385519E-01      0.2021644523E+00
          0                 2           2             2    2     1       0.1756231986E-03       2    2    1         0.9244384592E-02      0.1996903228E-01
          0                 3           1             2    2     1      -0.1566396549E-04       2    2    1        -0.8319936260E-03      0.1792914128E-02

    ------------------------------------------------
       NWT REQUIRED            3 OUTER ITERATIONS 
       AND A TOTAL OF          5 INNER ITERATIONS.
    ------------------------------------------------

 NO OUTPUT CONTROL FOR STRESS PERIOD   25   TIME STEP   25
 
 SOLVING FOR HEAD 
                                                   Max.-Head-Change                         Max.-Flux-Residual
  Residual-Control   Outer-Iter.   Inner-Iter.     Column Row Layer    Maximum-Head-Change  Column Row Layer    Maximum-Flux-Residual          L2-NORM 
          0                 1           2             2    2     1      -0.1763075504E-02       2    2    1        -0.9198951709E-01      0.2006631561E+00
          0                 2           2             2    2     1       0.1747657497E-03       2    2    1         0.9198950818E-02      0.1981963594E-01
          0                 3           1             2    2     1      -0.1558748328E-04       2    2    1        -0.8279045892E-03      0.1779110464E-02

    ------------------------------------------------
       NWT REQUIRED            3 OUTER ITERATIONS 
       AND A TOTAL OF          5 INNER ITERATIONS.
    ------------------------------------------------

 NO OUTPUT CONTROL FOR STRESS PERIOD   25   TIME STEP   26
 
 SOLVING FOR HEAD 
                                                   Max.-Head-Change                         Max.-Flux-Residual
  Residual-Control   Outer-Iter.   Inner-Iter.     Column Row Layer    Maximum-Head-Change  Column Row Layer    Maximum-Flux-Residual          L2-NORM 
          0                 1           2             2    2     1      -0.1754533813E-02       2    2    1        -0.9154077199E-01      0.1992101155E+00
          0                 2           2             2    2     1       0.1739188995E-03       2    2    1         0.9154076353E-02      0.1967243997E-01
          0                 3           1             2    2     1      -0.1551194683E-04       2    2    1        -0.8238658946E-03      0.1766118393E-02

    ------------------------------------------------
       NWT REQUIRED            3 OUTER ITERATIONS 
       AND A TOTAL OF          5 INNER ITERATIONS.
    ------------------------------------------------

 NO OUTPUT CONTROL FOR STRESS PERIOD   25   TIME STEP   27
 
 SOLVING FOR HEAD 
                                                   Max.-Head-Change                         Max.-Flux-Residual
  Residual-Control   Outer-Iter.   Inner-Iter.     Column Row Layer    Maximum-Head-Change  Column Row Layer    Maximum-Flux-Residual          L2-NORM 
          0                 1           2             2    2     1      -0.1746184961E-02       2    2    1        -0.9110215449E-01      0.1978106951E+00
          0                 2           2             2    2     1       0.1730911611E-03       2    2    1         0.9110214619E-02      0.1953525160E-01
          0                 3           1             2    2     1      -0.1543811449E-04       2    2    1        -0.8199183334E-03      0.1753987532E-02

    ------------------------------------------------
       NWT REQUIRED            3 OUTER ITERATIONS 
       AND A TOTAL OF          5 INNER ITERATIONS.
    ------------------------------------------------

 NO OUTPUT CONTROL FOR STRESS PERIOD   25   TIME STEP   28
 
 SOLVING FOR HEAD 
                                                   Max.-Head-Change                         Max.-Flux-Residual
  Residual-Control   Outer-Iter.   Inner-Iter.     Column Row Layer    Maximum-Head-Change  Column Row Layer    Maximum-Flux-Residual          L2-NORM 
          0                 1           2             2    2     1      -0.1737851278E-02       2    2    1        -0.9066438530E-01      0.1964565754E+00
          0                 2           2             2    2     1       0.1722649258E-03       2    2    1         0.9066437761E-02      0.1940265078E-01
          0                 3           1             2    2     1      -0.1536441625E-04       2    2    1        -0.8159784254E-03      0.1742111356E-02

    ------------------------------------------------
       NWT REQUIRED            3 OUTER ITERATIONS 
       AND A TOTAL OF          5 INNER ITERATIONS.
    ------------------------------------------------

 NO OUTPUT CONTROL FOR STRESS PERIOD   25   TIME STEP   29
 
 SOLVING FOR HEAD 
                                                   Max.-Head-Change                         Max.-Flux-Residual
  Residual-Control   Outer-Iter.   Inner-Iter.     Column Row Layer    Maximum-Head-Change  Column Row Layer    Maximum-Flux-Residual          L2-NORM 
          0                 1           2             2    2     1      -0.1729619847E-02       2    2    1        -0.9023198204E-01      0.1951386134E+00
          0                 2           2             2    2     1       0.1714488265E-03       2    2    1         0.9023197471E-02      0.1927333336E-01
          0                 3           1             2    2     1      -0.1529162226E-04       2    2    1        -0.8120868066E-03      0.1730368888E-02

    ------------------------------------------------
       NWT REQUIRED            3 OUTER ITERATIONS 
       AND A TOTAL OF          5 INNER ITERATIONS.
    ------------------------------------------------

 NO OUTPUT CONTROL FOR STRESS PERIOD   25   TIME STEP   30



 STREAM LISTING     PERIOD     25   STEP       30

 LAYER ROW COL. STREAM  RCH.  FLOW INTO     FLOW TO   FLOW OUT OF   OVRLND.     DIRECT     STREAM       STREAM     STREAM     STREAM   STREAMBED  STREAMBED
                SEG.NO.  NO.  STRM. RCH.    AQUIFER    STRM. RCH.    RUNOFF     PRECIP       ET          HEAD       DEPTH      WIDTH   CONDCTNC.   GRADIENT

   1    1    1     1     1    3.5000E+00  8.3255E-02   3.4167E+00  0.000E+00  0.000E+00  0.000E+00  1.09371E+03  6.654E-01  5.047E+00  2.271E-02  1.222E+00
   1    2    2     1     2    3.4167E+00  1.2792E-01   3.2888E+00  0.000E+00  0.000E+00  0.000E+00  1.08872E+03  6.583E-01  4.995E+00  3.497E-02  1.219E+00
   1    3    3     1     3    3.2888E+00  1.0809E-01   3.1807E+00  0.000E+00  0.000E+00  0.000E+00  1.08307E+03  6.502E-01  4.935E+00  2.961E-02  1.217E+00
   1    3    4     1     4    3.1807E+00  9.8702E-02   3.0820E+00  0.000E+00  0.000E+00  0.000E+00  1.07805E+03  6.428E-01  4.882E+00  2.709E-02  1.214E+00
   1    4    5     2     1    1.0820E+00  2.4731E-01   8.3473E-01  0.000E+00  0.000E+00  0.000E+00  1.07210E+03  1.706E-01  1.200E+01  7.800E-02  1.057E+00
   1    5    6     2     2    8.3473E-01  1.8877E-01   6.4596E-01  0.000E+00  0.000E+00  0.000E+00  1.06666E+03  1.462E-01  1.200E+01  6.000E-02  1.049E+00
   1    6    6     2     3    6.4596E-01  1.8736E-01   4.5860E-01  0.000E+00  0.000E+00  0.000E+00  1.06192E+03  1.226E-01  1.200E+01  6.000E-02  1.041E+00
   1    7    6     2     4    4.5860E-01  1.8574E-01   2.7286E-01  0.000E+00  0.000E+00  0.000E+00  1.05717E+03  9.573E-02  1.200E+01  6.000E-02  1.032E+00
   1    8    6     2     5    2.7286E-01  1.8377E-01   8.9092E-02  0.000E+00  0.000E+00  0.000E+00  1.05242E+03  6.276E-02  1.200E+01  6.000E-02  1.021E+00
   1    3    5     3     1    2.0000E+00  2.8252E-01   1.7175E+00  0.000E+00  0.000E+00  0.000E+00  1.07555E+03  1.909E+00  9.636E+00  7.227E-02  1.955E+00
   1    3    6     3     2    1.7175E+00  2.4905E-01   1.4684E+00  0.000E+00  0.000E+00  0.000E+00  1.07264E+03  1.727E+00  8.909E+00  6.682E-02  1.864E+00
   1    3    7     3     3    1.4684E+00  1.9718E-01   1.2712E+00  0.000E+00  0.000E+00  0.000E+00  1.06987E+03  1.555E+00  8.218E+00  5.547E-02  1.777E+00
   1    4    8     3     4    1.2712E+00  2.2567E-01   1.0456E+00  0.000E+00  0.000E+00  0.000E+00  1.06682E+03  1.364E+00  7.455E+00  6.709E-02  1.682E+00
   1    5    8     3     5    1.0456E+00  1.5790E-01   8.8768E-01  0.000E+00  0.000E+00  0.000E+00  1.06362E+03  1.164E+00  6.655E+00  4.991E-02  1.582E+00
   1    6    8     3     6    8.8768E-01  5.5980E-02   8.3170E-01  0.000E+00  0.000E+00  0.000E+00  1.06158E+03  1.036E+00  6.145E+00  1.844E-02  1.518E+00
   1    5   10     4     1    1.0000E+01  9.0919E-02   9.9091E+00  0.000E+00  0.000E+00  0.000E+00  1.07836E+03  6.368E-01  1.000E+01  2.500E-02  1.212E+00
   1    5    9     4     2    9.9091E+00  1.8158E-01   9.7275E+00  0.000E+00  0.000E+00  0.000E+00  1.07154E+03  6.315E-01  1.000E+01  5.000E-02  1.211E+00
   1    6    8     4     3    9.7275E+00  1.2689E-01   9.6006E+00  0.000E+00  0.000E+00  0.000E+00  1.06381E+03  6.256E-01  1.000E+01  3.500E-02  1.209E+00
   1    6    8     5     1    1.0432E+01  2.2686E-01   1.0205E+01  0.000E+00  0.000E+00  0.000E+00  1.05868E+03  6.790E-01  1.542E+01  6.166E-02  1.226E+00
   1    7    7     5     2    1.0205E+01  2.7894E-01   9.9265E+00  0.000E+00  0.000E+00  0.000E+00  1.05417E+03  6.732E-01  1.519E+01  7.594E-02  1.224E+00
   1    8    7     5     3    9.9265E+00  1.9221E-01   9.7343E+00  0.000E+00  0.000E+00  0.000E+00  1.04992E+03  6.676E-01  1.497E+01  5.241E-02  1.223E+00
   1    8    6     5     4    9.7343E+00  1.3577E-01   9.5985E+00  0.000E+00  0.000E+00  0.000E+00  1.04691E+03  6.637E-01  1.482E+01  3.706E-02  1.221E+00
   1    9    6     6     1    9.6876E+00  2.2120E-01   9.4664E+00  0.000E+00  0.000E+00  0.000E+00  1.04341E+03  6.866E-01  1.200E+01  6.000E-02  1.229E+00
   1   10    7     6     2    9.4664E+00  2.2062E-01   9.2458E+00  0.000E+00  0.000E+00  0.000E+00  1.03886E+03  6.771E-01  1.200E+01  6.000E-02  1.226E+00
   1   11    7     6     3    9.2458E+00  2.2005E-01   9.0258E+00  0.000E+00  0.000E+00  0.000E+00  1.03430E+03  6.674E-01  1.200E+01  6.000E-02  1.222E+00
   1   12    7     6     4    9.0258E+00  2.1947E-01   8.8063E+00  0.000E+00  0.000E+00  0.000E+00  1.02975E+03  6.578E-01  1.200E+01  6.000E-02  1.219E+00
   1   13    7     6     5    8.8063E+00 -1.0635E-01   8.9126E+00  0.000E+00  0.000E+00  0.000E+00  1.02656E+03  6.553E-01  1.200E+01  2.400E-01 -1.477E-01
   1   14    9     7     1    1.5000E+02  1.3413E+00   1.4866E+02  0.000E+00  0.000E+00  0.000E+00  1.03987E+03  2.288E+00  5.529E+01  5.593E-01  7.994E-01
   1   13    8     7     2    1.4866E+02  1.8494E+00   1.4681E+02  0.000E+00  0.000E+00  0.000E+00  1.03478E+03  2.279E+00  5.526E+01  6.148E-01  1.003E+00
   1   13    7     7     3    1.4681E+02  1.4978E+00   1.4531E+02  0.000E+00  0.000E+00  0.000E+00  1.02969E+03  2.270E+00  5.522E+01  5.584E-01  8.940E-01
   1   13    6     8     1    1.5422E+02  8.5909E-01   1.5337E+02  0.000E+00  0.000E+00  0.000E+00  1.02472E+03  2.843E+00  4.123E+01  4.201E-01  6.816E-01
   1   13    5     8     2    1.5337E+02  1.3045E-01   1.5323E+02  0.000E+00  0.000E+00  0.000E+00  1.01846E+03  2.840E+00  4.118E+01  4.196E-01  1.036E-01
   1   13    4     8     3    1.5323E+02 -2.5912E+00   1.5583E+02  0.000E+00  0.000E+00  0.000E+00  1.01222E+03  2.848E+00  4.130E+01  4.209E+00 -2.052E-01
   1   13    3     8     4    1.5583E+02 -3.7049E+00   1.5953E+02  0.000E+00  0.000E+00  0.000E+00  1.00600E+03  2.870E+00  4.162E+01  4.241E+00 -2.912E-01
   1   13    2     8     5    1.5953E+02 -2.5859E+00   1.6212E+02  0.000E+00  0.000E+00  0.000E+00  9.99766E+02  2.891E+00  4.193E+01  4.272E+00 -2.018E-01
   1   13    1     8     6    1.6212E+02 -1.9687E+00   1.6409E+02  0.000E+00  0.000E+00  0.000E+00  9.94782E+02  2.907E+00  4.215E+01  2.577E+00 -2.547E-01
   1    6    8     9     1    0.0000E+00  0.0000E+00   0.0000E+00  0.000E+00  0.000E+00  0.000E+00  1.07850E+03  0.000E+00  4.000E+00  0.000E+00  1.000E+00





UNSATURATED ZONE PACKAGE VOLUMETRIC BUDGET FOR  TIME STEP    30 STRESS PERIOD   25
  ------------------------------------------------------------------------------



     CUMULATIVE VOLUMES      L**3       RATES FOR THIS TIME STEP      L**3/T
     ------------------                 ------------------------

           IN:                                      IN:
           ---                                      ---
        INFILTRATION =   102392681.9333          INFILTRATION =       0.0000E+00

          OUT:                                     OUT:
          ----                                     ----
              UZF ET =    86358434.8076                UZF ET =           0.0116
        UZF RECHARGE =     3097390.9160          UZF RECHARGE =           0.0035

            IN - OUT =    12936856.2098              IN - OUT =          -0.0151

          STORAGE:                                 STORAGE:
          --------                                 --------
      STORAGE CHANGE =    12968301.2567        STORAGE CHANGE =          -0.0151

 PERCENT DISCREPANCY IS DIFFERENCE BETWEEN IN-OUT MINUS CHANGE IN STORAGE
 DIVIDED BY THE AVERAGE OF IN AND OUT TIMES 100

 PERCENT DISCREPANCY =          -0.01     PERCENT DISCREPANCY =          -0.08






1
  VOLUMETRIC BUDGET FOR ENTIRE MODEL AT END OF TIME STEP   30, STRESS PERIOD  25
  ------------------------------------------------------------------------------

     CUMULATIVE VOLUMES      L**3       RATES FOR THIS TIME STEP      L**3/T
     ------------------                 ------------------------

           IN:                                      IN:
           ---                                      ---
    AWU WELLS            =    15987972.0000      AWU WELLS            =           0.0000
    DIVERSION SEGMENTS   =    86331504.0000      DIVERSION SEGMENTS   =           0.0000
    GW IRRIGATION        =           0.0000      GW IRRIGATION        =           0.0000
    SW IRRIGATION        =           0.0000      SW IRRIGATION        =           0.0000
    EFFICIENCY FACTOR GW =           0.0000      EFFICIENCY FACTOR GW =           0.0000
    EFFICIENCY FACTOR SW =           0.0000      EFFICIENCY FACTOR SW =           0.0000

                TOTAL IN =   102319472.0000                  TOTAL IN =           0.0000

          OUT:                                     OUT:
          ----                                     ----
    AWU WELLS            =           0.0000      AWU WELLS            =           0.0000
    DIVERSION SEGMENTS   =           0.0000      DIVERSION SEGMENTS   =           0.0000
    GW IRRIGATION        =    15987972.0000      GW IRRIGATION        =           0.0000
    SW IRRIGATION        =    86331504.0000      SW IRRIGATION        =           0.0000
    EFFICIENCY FACTOR GW =           0.0000      EFFICIENCY FACTOR GW =           0.0000
    EFFICIENCY FACTOR SW =           0.0000      EFFICIENCY FACTOR SW =           0.0000

               TOTAL OUT =   102319472.0000                 TOTAL OUT =           0.0000

                IN - OUT =           0.0000                  IN - OUT =           0.0000

     PERCENT DISCREPANCY =           0.00         PERCENT DISCREPANCY =           0.00



1
  VOLUMETRIC BUDGET FOR ENTIRE MODEL AT END OF TIME STEP   30, STRESS PERIOD  25
  ------------------------------------------------------------------------------

     CUMULATIVE VOLUMES      L**3       RATES FOR THIS TIME STEP      L**3/T
     ------------------                 ------------------------

           IN:                                      IN:
           ---                                      ---
             STORAGE     =   109442248.0000               STORAGE     =           0.9314
       CONSTANT HEAD     =           0.0000         CONSTANT HEAD     =           0.0000
     HEAD DEP BOUNDS     =    18059970.0000       HEAD DEP BOUNDS     =           0.2861
      STREAM LEAKAGE     =   735516416.0000        STREAM LEAKAGE     =          10.3717
        UZF RECHARGE     =     3097393.5000          UZF RECHARGE     =       3.4875E-03
               GW ET     =           0.0000                 GW ET     =           0.0000
     SURFACE LEAKAGE     =           0.0000       SURFACE LEAKAGE     =           0.0000
    AWU WELLS            =           0.0000      AWU WELLS            =           0.0000

                TOTAL IN =   866116032.0000                  TOTAL IN =          11.5927

          OUT:                                     OUT:
          ----                                     ----
             STORAGE     =   113390320.0000               STORAGE     =           0.3385
       CONSTANT HEAD     =           0.0000         CONSTANT HEAD     =           0.0000
     HEAD DEP BOUNDS     =    18082602.0000       HEAD DEP BOUNDS     =           0.2867
      STREAM LEAKAGE     =   609553216.0000        STREAM LEAKAGE     =          10.9571
        UZF RECHARGE     =           0.0000          UZF RECHARGE     =           0.0000
               GW ET     =   109102448.0000                 GW ET     =       9.9801E-03
     SURFACE LEAKAGE     =           0.0000       SURFACE LEAKAGE     =           0.0000
    AWU WELLS            =    15987972.0000      AWU WELLS            =           0.0000

               TOTAL OUT =   866116544.0000                 TOTAL OUT =          11.5922

                IN - OUT =        -512.0000                  IN - OUT =       4.6825E-04

     PERCENT DISCREPANCY =          -0.00         PERCENT DISCREPANCY =           0.00






         TIME SUMMARY AT END OF TIME STEP   30 IN STRESS PERIOD   25
                    SECONDS     MINUTES      HOURS       DAYS        YEARS
                    -----------------------------------------------------------
   TIME STEP LENGTH  87600.      1460.0      24.333      1.0139     2.77588E-03
 STRESS PERIOD TIME 2.62800E+06  43800.      730.00      30.417     8.32763E-02
         TOTAL TIME 6.31584E+07 1.05264E+06  17544.      731.00      2.0014    
1

 Run end date and time (yyyy/mm/dd hh:mm:ss): 2018/03/20 11:35:34
 Elapsed run time:  4.067 Seconds

