                                  MODFLOW-NWT-SWR1 
      U.S. GEOLOGICAL SURVEY MODULAR FINITE-DIFFERENCE GROUNDWATER-FLOW MODEL
                             VERSION 1.1.4 4/01/2018
                    BASED ON MODFLOW-2005 VERSION 1.12.00 02/03/2017

 LIST FILE: Agwater1.lst
                         UNIT    9

 OPENING Agwater1.ba6
 FILE TYPE:BAS6   UNIT   75   STATUS:OLD    
 FORMAT:FORMATTED              ACCESS:SEQUENTIAL          

 OPENING Agwater1.upw
 FILE TYPE:UPW   UNIT    7   STATUS:OLD    
 FORMAT:FORMATTED              ACCESS:SEQUENTIAL          

 OPENING Agwater1.dis
 FILE TYPE:DIS   UNIT    8   STATUS:OLD    
 FORMAT:FORMATTED              ACCESS:SEQUENTIAL          

 OPENING Agwater1.nwt
 FILE TYPE:NWT   UNIT   13   STATUS:OLD    
 FORMAT:FORMATTED              ACCESS:SEQUENTIAL          

 OPENING Agwater1.oc
 FILE TYPE:OC   UNIT   14   STATUS:OLD    
 FORMAT:FORMATTED              ACCESS:SEQUENTIAL          

 OPENING Agwater1.sfr
 FILE TYPE:SFR   UNIT   15   STATUS:OLD    
 FORMAT:FORMATTED              ACCESS:SEQUENTIAL          

 OPENING Agwater1.ghb
 FILE TYPE:GHB   UNIT   17   STATUS:OLD    
 FORMAT:FORMATTED              ACCESS:SEQUENTIAL          

 OPENING Agwater1.uzf
 FILE TYPE:UZF   UNIT   19   STATUS:OLD    
 FORMAT:FORMATTED              ACCESS:SEQUENTIAL          

 OPENING Agwater1.gag
 FILE TYPE:GAGE   UNIT   32   STATUS:OLD    
 FORMAT:FORMATTED              ACCESS:SEQUENTIAL          

 OPENING seg1.tab
 FILE TYPE:DATA   UNIT   55   STATUS:UNKNOWN
 FORMAT:FORMATTED              ACCESS:SEQUENTIAL          

 OPENING seg9.tab
 FILE TYPE:DATA   UNIT   56   STATUS:UNKNOWN
 FORMAT:FORMATTED              ACCESS:SEQUENTIAL          

 OPENING Agwater1.awu
 FILE TYPE:AWU   UNIT   57   STATUS:OLD    
 FORMAT:FORMATTED              ACCESS:SEQUENTIAL          

 OPENING Agwater1.hed
 FILE TYPE:DATA   UNIT   62   STATUS:UNKNOWN
 FORMAT:FORMATTED              ACCESS:SEQUENTIAL          

 OPENING Agwater1gw.ts5
 FILE TYPE:DATA   UNIT  105   STATUS:UNKNOWN
 FORMAT:FORMATTED              ACCESS:SEQUENTIAL          

 OPENING Agwater1SW.ts9
 FILE TYPE:DATA   UNIT  107   STATUS:UNKNOWN
 FORMAT:FORMATTED              ACCESS:SEQUENTIAL          

 OPENING Agwater1SW_ET.ts9
 FILE TYPE:DATA   UNIT  108   STATUS:UNKNOWN
 FORMAT:FORMATTED              ACCESS:SEQUENTIAL          

 OPENING Agwater1.uzfot
 FILE TYPE:DATA(BINARY)   UNIT   61   STATUS:UNKNOWN
 FORMAT:BINARY                 ACCESS:SEQUENTIAL          

 OPENING Agwater1cbc.unf
 FILE TYPE:DATA(BINARY)   UNIT  102   STATUS:UNKNOWN
 FORMAT:BINARY                 ACCESS:SEQUENTIAL          

 OPENING welllist.unf
 FILE TYPE:DATA(BINARY)   UNIT  103   STATUS:UNKNOWN
 FORMAT:BINARY                 ACCESS:SEQUENTIAL          

 OPENING wellirrlist.unf
 FILE TYPE:DATA(BINARY)   UNIT  104   STATUS:UNKNOWN
 FORMAT:BINARY                 ACCESS:SEQUENTIAL          

 OPENING Agwater1.uzf1
 FILE TYPE:DATA   UNIT   65   STATUS:UNKNOWN
 FORMAT:FORMATTED              ACCESS:SEQUENTIAL          

 OPENING Agwater1.uzf2
 FILE TYPE:DATA   UNIT   66   STATUS:UNKNOWN
 FORMAT:FORMATTED              ACCESS:SEQUENTIAL          

 OPENING Agwater1.uzf3
 FILE TYPE:DATA   UNIT   67   STATUS:UNKNOWN
 FORMAT:FORMATTED              ACCESS:SEQUENTIAL          

 OPENING Agwater1.uzf4
 FILE TYPE:DATA   UNIT   68   STATUS:UNKNOWN
 FORMAT:FORMATTED              ACCESS:SEQUENTIAL          

 OPENING Agwater1.flw
 FILE TYPE:DATA   UNIT   81   STATUS:UNKNOWN
 FORMAT:FORMATTED              ACCESS:SEQUENTIAL          

 OPENING Agwater1.sg1
 FILE TYPE:DATA   UNIT   83   STATUS:UNKNOWN
 FORMAT:FORMATTED              ACCESS:SEQUENTIAL          

 OPENING Agwater1.sg2
 FILE TYPE:DATA   UNIT   84   STATUS:UNKNOWN
 FORMAT:FORMATTED              ACCESS:SEQUENTIAL          

 OPENING Agwater1.sg3
 FILE TYPE:DATA   UNIT   85   STATUS:UNKNOWN
 FORMAT:FORMATTED              ACCESS:SEQUENTIAL          

 OPENING Agwater1.sg4
 FILE TYPE:DATA   UNIT   86   STATUS:UNKNOWN
 FORMAT:FORMATTED              ACCESS:SEQUENTIAL          

 OPENING Agwater1.sg5
 FILE TYPE:DATA   UNIT   87   STATUS:UNKNOWN
 FORMAT:FORMATTED              ACCESS:SEQUENTIAL          

 OPENING Agwater1.sg6
 FILE TYPE:DATA   UNIT   88   STATUS:UNKNOWN
 FORMAT:FORMATTED              ACCESS:SEQUENTIAL          

 OPENING Agwater1.sg7
 FILE TYPE:DATA   UNIT   89   STATUS:UNKNOWN
 FORMAT:FORMATTED              ACCESS:SEQUENTIAL          

 OPENING Agwater1.sg8
 FILE TYPE:DATA   UNIT   90   STATUS:UNKNOWN
 FORMAT:FORMATTED              ACCESS:SEQUENTIAL          

 OPENING Agwater1.sg9
 FILE TYPE:DATA   UNIT   91   STATUS:UNKNOWN
 FORMAT:FORMATTED              ACCESS:SEQUENTIAL          

 BAS -- BASIC PACKAGE, VERSION 1.1.4, 4/01/2018 INPUT READ FROM UNIT   75
 
 MODFLOW was compiled using mixed precision
 Precision of REAL variables:           6
 Precision of DOUBLE PRECISION variables:          15

 DISCRETIZATION INPUT DATA READ FROM UNIT    8
 #Test problem 2-- Discretization input
 #Example problem using the UZF1 Package
    1 LAYERS        15 ROWS        10 COLUMNS
   25 STRESS PERIOD(S) IN SIMULATION
 MODEL TIME UNIT IS SECONDS
 MODEL LENGTH UNIT IS FEET
  Confining bed flag for each layer:
   0

                     DELR =   5000.00    

                     DELC =   5000.00    



           TOP ELEVATION OF LAYER 1
 READING ON UNIT    8 WITH FORMAT: (10F7.0)            

            1           2           3           4           5           6           7           8           9          10
 ........................................................................................................................
   1    1105.       1105.       0.000       0.000       0.000       0.000       0.000       0.000       0.000       0.000    
   2    1105.       1095.       1105.       0.000       0.000       1100.       1100.       1110.       0.000       0.000    
   3    0.000       1100.       1085.       1080.       1078.       1076.       1073.       1090.       0.000       0.000    
   4    1110.       1100.       1090.       1085.       1076.       1080.       1080.       1070.       1100.       0.000    
   5    1110.       1100.       1085.       1080.       1078.       1074.       1077.       1066.       1075.       1080.    
   6    1105.       1095.       1080.       1077.       1073.       1069.       1070.       1063.       1085.       1095.    
   7    1105.       1090.       1075.       1072.       1070.       1065.       1065.       1069.       1090.       0.000    
   8    0.000       1080.       1070.       1068.       1063.       1060.       1063.       1067.       1090.       0.000    
   9    0.000       1075.       1065.       1062.       1058.       1052.       1055.       1065.       1090.       0.000    
  10    0.000       1070.       1060.       1055.       1046.       1046.       1044.       1060.       1088.       1100.    
  11    0.000       1055.       1050.       1045.       1041.       1042.       1040.       1050.       1075.       0.000    
  12    1027.       1028.       1028.       1032.       1032.       1033.       1032.       1040.       1060.       0.000    
  13    997.0       1004.       1008.       1014.       1020.       1027.       1032.       1038.       1050.       0.000    
  14    0.000       1030.       1040.       1045.       1050.       1050.       1050.       1050.       1044.       0.000    
  15    0.000       0.000       1080.       1080.       1080.       1080.       0.000       0.000       0.000       0.000    



             MODEL LAYER BOTTOM EL. FOR LAYER   1
 READING ON UNIT    8 WITH FORMAT: (10F7.0)            

            1           2           3           4           5           6           7           8           9          10
 ........................................................................................................................
   1    1000.       1000.       0.000       0.000       0.000       0.000       0.000       0.000       0.000       0.000    
   2    1000.       900.0       900.0       0.000       0.000       950.0       950.0       950.0       0.000       0.000    
   3    0.000       850.0       670.0       680.0       680.0       770.0       770.0       890.0       0.000       0.000    
   4    925.0       850.0       650.0       650.0       650.0       680.0       740.0       850.0       950.0       0.000    
   5    925.0       800.0       650.0       600.0       600.0       600.0       650.0       720.0       850.0       950.0    
   6    925.0       800.0       650.0       600.0       550.0       600.0       650.0       720.0       850.0       970.0    
   7    925.0       800.0       650.0       600.0       550.0       600.0       650.0       720.0       950.0       0.000    
   8    0.000       850.0       700.0       650.0       570.0       600.0       700.0       850.0       950.0       0.000    
   9    0.000       850.0       700.0       650.0       540.0       580.0       700.0       850.0       950.0       0.000    
  10    0.000       850.0       700.0       630.0       530.0       580.0       650.0       800.0       900.0       950.0    
  11    0.000       850.0       700.0       620.0       580.0       620.0       700.0       800.0       900.0       0.000    
  12    900.0       830.0       710.0       640.0       600.0       650.0       700.0       800.0       900.0       0.000    
  13    900.0       810.0       750.0       700.0       650.0       700.0       750.0       800.0       900.0       0.000    
  14    0.000       950.0       850.0       850.0       850.0       850.0       850.0       850.0       850.0       0.000    
  15    0.000       0.000       950.0       950.0       950.0       950.0       0.000       0.000       0.000       0.000    


 STRESS PERIOD     LENGTH       TIME STEPS     MULTIPLIER FOR DELT    SS FLAG
 ----------------------------------------------------------------------------
        1         86400.00          1                    1.000         SS
        2         2628000.         30                    1.000         TR
        3         2628000.         30                    1.000         TR
        4         2628000.         30                    1.000         TR
        5         2628000.         30                    1.000         TR
        6         2628000.         30                    1.000         TR
        7         2628000.         30                    1.000         TR
        8         2628000.         30                    1.000         TR
        9         2628000.         30                    1.000         TR
       10         2628000.         30                    1.000         TR
       11         2628000.         30                    1.000         TR
       12         2628000.         30                    1.000         TR
       13         2628000.         30                    1.000         TR
       14         2628000.         30                    1.000         TR
       15         2628000.         30                    1.000         TR
       16         2628000.         30                    1.000         TR
       17         2628000.         30                    1.000         TR
       18         2628000.         30                    1.000         TR
       19         2628000.         30                    1.000         TR
       20         2628000.         30                    1.000         TR
       21         2628000.         30                    1.000         TR
       22         2628000.         30                    1.000         TR
       23         2628000.         30                    1.000         TR
       24         2628000.         30                    1.000         TR
       25         2628000.         30                    1.000         TR

 COMBINED STEADY-STATE AND TRANSIENT SIMULATION



 
 #Test Simulation 2-- Example problem using the UZF1 Package                     
 #Modified from example Problem 1 of SFR1 documentation report                   
 THE FREE FORMAT OPTION HAS BEEN SELECTED



                     BOUNDARY ARRAY FOR LAYER   1
 READING ON UNIT   75 WITH FORMAT: (20I4)              

                1           2           3           4           5           6           7           8           9          10
 ............................................................................................................................
   1            1           1           0           0           0           0           0           0           0           0
   2            1           1           1           0           0           1           1           1           0           0
   3            0           1           1           1           1           1           1           1           0           0
   4            1           1           1           1           1           1           1           1           1           0
   5            1           1           1           1           1           1           1           1           1           1
   6            1           1           1           1           1           1           1           1           1           1
   7            1           1           1           1           1           1           1           1           1           0
   8            0           1           1           1           1           1           1           1           1           0
   9            0           1           1           1           1           1           1           1           1           0
  10            0           1           1           1           1           1           1           1           1           1
  11            0           1           1           1           1           1           1           1           1           0
  12            1           1           1           1           1           1           1           1           1           0
  13            1           1           1           1           1           1           1           1           1           0
  14            0           1           1           1           1           1           1           1           1           0
  15            0           0           1           1           1           1           0           0           0           0

 AQUIFER HEAD WILL BE SET TO   6999.0     AT ALL NO-FLOW NODES (IBOUND=0).



                       INITIAL HEAD FOR LAYER   1
 READING ON UNIT   75 WITH FORMAT: (10F8.0)            

            1           2           3           4           5           6           7           8           9          10
 ........................................................................................................................
   1    1093.       1089.       6999.       6999.       6999.       6999.       6999.       6999.       6999.       6999.    
   2    1090.       1087.       1081.       6999.       6999.       1072.       1071.       1071.       6999.       6999.    
   3    6999.       1079.       1078.       1074.       1072.       1071.       1069.       1068.       6999.       6999.    
   4    1069.       1071.       1070.       1067.       1065.       1064.       1064.       1066.       1066.       6999.    
   5    1065.       1064.       1063.       1062.       1061.       1061.       1060.       1062.       1066.       1068.    
   6    1060.       1058.       1057.       1056.       1056.       1057.       1057.       1059.       1062.       1066.    
   7    1056.       1053.       1052.       1051.       1051.       1052.       1053.       1055.       1056.       6999.    
   8    6999.       1046.       1046.       1046.       1046.       1046.       1048.       1050.       1050.       6999.    
   9    6999.       1039.       1039.       1039.       1040.       1041.       1042.       1043.       1044.       6999.    
  10    6999.       1031.       1032.       1033.       1034.       1035.       1037.       1038.       1039.       1042.    
  11    6999.       1021.       1023.       1027.       1029.       1030.       1032.       1034.       1036.       6999.    
  12    1001.       1009.       1015.       1020.       1023.       1026.       1029.       1030.       1034.       6999.    
  13    994.5      1000.0       1007.       1013.       1019.       1024.       1029.       1034.       1036.       6999.    
  14    6999.       1004.       1009.       1014.       1019.       1024.       1029.       1035.       1039.       6999.    
  15    6999.       6999.       1012.       1015.       1019.       1022.       6999.       6999.       6999.       6999.    

 OUTPUT CONTROL IS SPECIFIED ONLY AT TIME STEPS FOR WHICH OUTPUT IS DESIRED
 HEADS WILL BE SAVED WITH FORMAT: (10F10.3)           
 SAVED HEADS WILL BE LABELED
 COMPACT CELL-BY-CELL BUDGET FILES WILL BE WRITTEN
 HEAD PRINT FORMAT CODE IS   4    DRAWDOWN PRINT FORMAT CODE IS   0
 HEADS WILL BE SAVED ON UNIT   62    DRAWDOWNS WILL BE SAVED ON UNIT    0
 # NWT Input File
 # Test Problem 3 for MODFLOW-NWT
 #HEADTOL  FLUXTOL MAXITEROUT THICKFACT LINMETH IPRNWT IBOTAV OPTIONS DBDREDUCE DBDINCREASE DBDGAMMA MOMFACT BACKFLAG MAXBACKITER BACKTOL BACKREDUCE

 NWT1 -- Newton Solver, VERSION 1.1.4, 4/01/2018
         INPUT READ FROM UNIT 13

 SPECIFIED OPTION:
 SOLVER INPUT VALUES ARE SPECIFIED BY USER
 ***XMD linear solver will be used***
 
   CONVERGENCE CRITERION OF   0.100000E-03 FOR HEAD SOLUTION
   AND A TOLERANCE OF   0.100000E+03 FOR FLOW SOLUTION AND 
   A MAXIMUM OF   500 OUTER ITERATIONS. 


   D-B-D REDUCTION FACTOR OF    0.970000E+00 AND 
   A D-B-D INCREASE FACTOR OF    0.100000E-04 AND 
   A D-B-D RELAXATION OF    0.000000E+00 AND 
   A MOMENTUM FACTOR OF    0.100000E+00 .


 ***BACKTRACKING IS INACTIVE***
 XMD -- LINEAR SOLUTION BY XMD PACKAGE VERSION 1.30
     BY MOTOMU IBARAKI, OHIO STATE UNIVERSITY, COLOMBUS, OH
                 INPUT READ FROM UNIT 13
 ACCELERATION METHOD                    (IACL) =         1
 NODE ORDERING FLAG                   (NORDER) =         0
 LEVEL OF FILL                         (LEVEL) =         7
 MAXIMUM NUMBER OF ORTHOGONALIZATIONS  (NORTH) =         7
 INDEX FOR USING REDUCED SYSTEM      (IREDSYS) =         1
 RESID. REDUCTION CONVERGE CRITERION  (RRCTOL) =  0.000000E+00
 INDEX FOR USING DROP TOLERANCE     (IDROPTOL) =         1
 DROP TOLERANCE VALUE                  (EPSRN) =  0.500000E-02
 CONVERGENCE CRITERIA OF           (HCLOSEXMD) =  0.100000E-03
 MAX. NUMBER OF LINEAR ITERATIONS  (MXITERXMD) =        50


 UPW1 -- UPSTREAM WEIGHTING FLOW PACKAGE, VERSION 1.1.4, 4/01/2018
         INPUT READ FROM UNIT  7

 #Layer-Property Flow Package input for test simulation 2
 CELL-BY-CELL FLOWS WILL BE SAVED ON UNIT  102
 No named parameters

   LAYER FLAGS:
 LAYER       LAYTYP          LAYAVG    CHANI           LAYVKA           LAYWET
 ---------------------------------------------------------------------------
    1             1             0     1.000E+00             0             0

   INTERPRETATION OF LAYER FLAGS:
                        INTERBLOCK     HORIZONTAL    DATA IN
         LAYER TYPE   TRANSMISSIVITY   ANISOTROPY   ARRAY VKA   WETTABILITY
 LAYER   (LAYTYP)        (LAYAVG)      (CHANI)     (LAYVKA)       (LAYWET)
 ---------------------------------------------------------------------------
    1   CONVERTIBLE      HARMONIC     1.000E+00    VERTICAL K  NON-WETTABLE



              HYD. COND. ALONG ROWS FOR LAYER   1
 READING ON UNIT    7 WITH FORMAT: (10F5.0)            

            1           2           3           4           5           6           7           8           9          10
 ........................................................................................................................
   1   2.0000E-03  2.0000E-03   0.000       0.000       0.000       0.000       0.000       0.000       0.000       0.000    
   2   4.0000E-04  2.0000E-03  2.0000E-03   0.000       0.000      4.0000E-04  4.0000E-04  4.0000E-04   0.000       0.000    
   3    0.000      4.0000E-04  2.0000E-03  2.0000E-03  4.0000E-04  4.0000E-04  4.0000E-04  4.0000E-04   0.000       0.000    
   4   4.0000E-04  4.0000E-04  4.0000E-04  2.0000E-03  2.0000E-03  2.0000E-03  4.0000E-04  4.0000E-04  4.0000E-04   0.000    
   5   4.0000E-04  4.0000E-04  4.0000E-04  2.0000E-03  2.0000E-03  2.0000E-03  2.0000E-03  2.0000E-03  2.0000E-03  2.0000E-03
   6   4.0000E-04  4.0000E-04  4.0000E-04  2.0000E-03  2.0000E-03  2.0000E-03  2.0000E-03  2.0000E-03  4.0000E-04  4.0000E-04
   7   4.0000E-04  4.0000E-04  4.0000E-04  2.0000E-03  2.0000E-03  2.0000E-03  2.0000E-03  2.0000E-03  4.0000E-04   0.000    
   8    0.000      4.0000E-04  4.0000E-04  2.0000E-03  2.0000E-03  2.0000E-03  2.0000E-03  4.0000E-04  4.0000E-04   0.000    
   9    0.000      4.0000E-04  4.0000E-04  2.0000E-03  2.0000E-03  2.0000E-03  2.0000E-03  4.0000E-04  4.0000E-04   0.000    
  10    0.000      4.0000E-04  4.0000E-04  2.0000E-03  2.0000E-03  2.0000E-03  2.0000E-03  4.0000E-04  4.0000E-04  4.0000E-04
  11    0.000      4.0000E-04  4.0000E-04  2.0000E-03  2.0000E-03  2.0000E-03  2.0000E-03  4.0000E-04  4.0000E-04   0.000    
  12   4.0000E-04  4.0000E-04  2.0000E-03  2.0000E-03  2.0000E-03  2.0000E-03  2.0000E-03  4.0000E-04  4.0000E-04   0.000    
  13   2.0000E-03  2.0000E-03  2.0000E-03  2.0000E-03  2.0000E-03  2.0000E-03  2.0000E-03  2.0000E-03  2.0000E-03   0.000    
  14    0.000      4.0000E-04  4.0000E-04  4.0000E-04  4.0000E-04  4.0000E-04  4.0000E-04  4.0000E-04  2.0000E-03   0.000    
  15    0.000       0.000      4.0000E-04  4.0000E-04  4.0000E-04  4.0000E-04   0.000       0.000       0.000       0.000    

      VERTICAL HYD. COND. =  1.000000E-06 FOR LAYER   1

         SPECIFIC STORAGE =  1.000000E-06 FOR LAYER   1



                     SPECIFIC YIELD FOR LAYER   1
 READING ON UNIT    7 WITH FORMAT: (10F5.0)            

            1           2           3           4           5           6           7           8           9          10
 ........................................................................................................................
   1   0.2000      0.2000       0.000       0.000       0.000       0.000       0.000       0.000       0.000       0.000    
   2   0.1000      0.2000      0.2000       0.000       0.000      0.1000      0.1000      0.1000       0.000       0.000    
   3    0.000      0.1000      0.2000      0.2000      0.1000      0.1000      0.1000      0.1000       0.000       0.000    
   4   0.1000      0.1000      0.1000      0.2000      0.2000      0.2000      0.1000      0.1000      0.1000       0.000    
   5   0.1000      0.1000      0.1000      0.2000      0.2000      0.2000      0.2000      0.2000      0.2000      0.2000    
   6   0.1000      0.1000      0.1000      0.2000      0.2000      0.2000      0.2000      0.2000      0.1000      0.1000    
   7   0.1000      0.1000      0.1000      0.2000      0.2000      0.2000      0.2000      0.2000      0.1000       0.000    
   8    0.000      0.1000      0.1000      0.2000      0.2000      0.2000      0.2000      0.1000      0.1000       0.000    
   9    0.000      0.1000      0.1000      0.2000      0.2000      0.2000      0.2000      0.1000      0.1000       0.000    
  10    0.000      0.1000      0.1000      0.2000      0.2000      0.2000      0.2000      0.1000      0.1000      0.1000    
  11    0.000      0.1000      0.1000      0.2000      0.2000      0.2000      0.2000      0.1000      0.1000       0.000    
  12   0.1000      0.1000      0.2000      0.2000      0.2000      0.2000      0.2000      0.1000      0.1000       0.000    
  13   0.2000      0.2000      0.2000      0.2000      0.2000      0.2000      0.2000      0.2000      0.2000       0.000    
  14    0.000      0.1000      0.1000      0.1000      0.1000      0.1000      0.1000      0.1000      0.2000       0.000    
  15    0.000       0.000      0.1000      0.1000      0.1000      0.1000       0.000       0.000       0.000       0.000    

 GHB -- GENERAL-HEAD BOUNDARY PACKAGE, VERSION 7, 5/2/2005
         INPUT READ FROM UNIT   17
 No named parameters
 MAXIMUM OF      2 ACTIVE GHB CELLS AT ONE TIME
 CELL-BY-CELL FLOWS WILL BE PRINTED WHEN ICBCFL NOT 0


     0 GHB parameters

 SFR7 -- STREAMFLOW ROUTING PACKAGE, VERSION 1.0.5, 2012-04-05
         INPUT READ FROM UNIT  15
 #SFR2 Package input for Testing supplimental pumping and irrigation
 No named parameters

 PROCESSING SFR2 OPTIONS
 
          2 Specified inflow files will be read with a maximum of        759 row entries per file
 
Stream loss will be calculated as a factor of the streambed hydraulic conductivity. Multiplication factor is equal to     0.1000000015E+00

 END PROCESSING SFR2 OPTIONS
 


 NUMBER OF STREAM REACHES IS   38

 NUMBER OF STREAM SEGMENTS IS    9

 NUMBER OF STREAM PARAMETERS IS    0

 NUMBER OF STREAM SEGMENTS DEFINED USING PARAMETERS IS              0

 MAXIMUM ERROR FOR STREAM LEAKAGE RATES IS  1.00E-06

 CONSTANT FOR MANNINGS EQUATION IS  1.4860E+00



 STREAM OUTPUT WILL BE WRITTEN TO FILE ON UNIT   81


   STREAM NETWORK DESCRIPTION: 

   LAYER    ROW    COL   SEGMENT   REACH     LENGTH
                          NUMBER   NUMBER    IN CELL        
   --------------------------------------------------
      1      1      1       1        1    4.5000E+03
      1      2      2       1        2    7.0000E+03
      1      3      3       1        3    6.0000E+03
      1      3      4       1        4    5.5500E+03
      1      4      5       2        1    6.5000E+03
      1      5      6       2        2    5.0000E+03
      1      6      6       2        3    5.0000E+03
      1      7      6       2        4    5.0000E+03
      1      8      6       2        5    5.0000E+03
      1      3      5       3        1    5.0000E+03
      1      3      6       3        2    5.0000E+03
      1      3      7       3        3    4.5000E+03
      1      4      8       3        4    6.0000E+03
      1      5      8       3        5    5.0000E+03
      1      6      8       3        6    2.0000E+03
      1      5     10       4        1    2.5000E+03
      1      5      9       4        2    5.0000E+03
      1      6      8       4        3    3.5000E+03
      1      6      8       5        1    4.0000E+03
      1      7      7       5        2    5.0000E+03
      1      8      7       5        3    3.5000E+03
      1      8      6       5        4    2.5000E+03
      1      9      6       6        1    5.0000E+03
      1     10      7       6        2    5.0000E+03
      1     11      7       6        3    5.0000E+03
      1     12      7       6        4    5.0000E+03
      1     13      7       6        5    2.0000E+03
      1     14      9       7        1    5.0000E+03
      1     13      8       7        2    5.5000E+03
      1     13      7       7        3    5.0000E+03
      1     13      6       8        1    5.0000E+03
      1     13      5       8        2    5.0000E+03
      1     13      4       8        3    5.0000E+03
      1     13      3       8        4    5.0000E+03
      1     13      2       8        5    5.0000E+03
      1     13      1       8        6    3.0000E+03
      1      8      6       9        1    3.0000E+03
      1      8      5       9        2    3.0000E+03




 UZF1 -- UNSATURATED FLOW PACKAGE, VERSION 1.4, 02/06/2012
         INPUT READ FROM UNIT 19
 #UZF Package input for test simulation 2
 No named parameters

 PROCESSING UZF OPTIONS
 
 
 INITIAL WATER CONTENT (THTI) WILL BE 
READ FOR THE FIRST SS OR TR STRESS PERIOD
 
 
 RESIDUAL WATER CONTENT (THTR) WILL BE 
READ AND USED FOR THE FIRST TRANSIENT STRESS 
PERIOD
 
 #etsquare    0.1
 
INFILTRATION WILL BE REJECTED USING 
LAND SURFACE K
 
 
HYDRAULIC CONDUCTIVITY OF LAND SURFACE 
WILL BE READ
 

 END PROCESSING UZF OPTIONS



            AREAL EXTENT OF UZ FLOW
 READING ON UNIT   19 WITH FORMAT: (20I4)              

                1           2           3           4           5           6           7           8           9          10
 ............................................................................................................................
   1            1           1           0           0           0           0           0           0           0           0
   2            1           1           1           0           0           1           1           1           0           0
   3            0           1           1           1           1           1           1           1           0           0
   4            1           1           1           1           1           1           1           1           1           0
   5            1           1           1           1           1           1           1           1           1           1
   6            1           1           1           1           1           1           1           1           1           1
   7            1           1           1           1           1           1           1           1           1           0
   8            0           1           1           1           1           1           1           1           1           0
   9            0           1           1           1           1           1           1           1           1           0
  10            0           1           1           1           1           1           1           1           1           1
  11            0           1           1           1           1           1           1           1           1           0
  12            1           1           1           1           1           1           1           1           1           0
  13            1           1           1           1           1           1           1           1           1           0
  14            0           1           1           1           1           1           1           1           1           0
  15            0           0           1           1           1           1           0           0           0           0
 OPTION 1 -- RECHARGE IN UZF TO TOP LAYER ONLY 



            ROUTING OVERLAND RUNOFF
 READING ON UNIT   19 WITH FORMAT: (20I4)              

                1           2           3           4           5           6           7           8           9          10
 ............................................................................................................................
   1            1           1           0           0           0           0           0           0           0           0
   2            1           1           1           0           0           3           3           3           0           0
   3            0           1           1           1           3           3           3           3           0           0
   4            8           8           2           2           2           2           2           3           3           0
   5            8           8           8           8           2           2           2           3           4           4
   6            8           8           8           8           8           2           2           4           4           4
   7            8           8           8           8           8           2           5           5           5           0
   8            0           8           8           8           8           2           5           5           5           0
   9            0           8           8           8           8           6           6           6           6           0
  10            0           8           8           8           8           6           6           6           6           6
  11            0           8           8           8           8           8           6           6           7           0
  12            8           8           8           8           8           8           6           7           7           0
  13            8           8           8           8           8           8           7           7           7           0
  14            0           8           8           8           8           8           7           7           7           0
  15            0           0           8           8           8           8           0           0           0           0



               SATURATED VERTICAL K
 READING ON UNIT   19 WITH FORMAT: (10F4.0)            

            1           2           3           4           5           6           7           8           9          10
 ........................................................................................................................
   1   1.0000E-05  1.0000E-05   0.000       0.000       0.000       0.000       0.000       0.000       0.000       0.000    
   2   1.0000E-05  1.0000E-05  1.0000E-05   0.000       0.000      1.0000E-05  1.0000E-05  1.0000E-05   0.000       0.000    
   3    0.000      1.0000E-05  1.0000E-05  1.0000E-05  1.0000E-05  1.0000E-05  1.0000E-05  1.0000E-05   0.000       0.000    
   4   1.0000E-05  1.0000E-05  1.0000E-05  1.0000E-05  1.0000E-05  1.0000E-05  1.0000E-05  1.0000E-05  1.0000E-05   0.000    
   5   1.0000E-05  1.0000E-05  1.0000E-05  1.0000E-05  1.0000E-05  1.0000E-05  1.0000E-05  1.0000E-05  1.0000E-05  1.0000E-05
   6   1.0000E-05  1.0000E-05  1.0000E-05  1.0000E-05  1.0000E-05  1.0000E-05  1.0000E-05  1.0000E-05  1.0000E-05  1.0000E-05
   7   1.0000E-05  1.0000E-05  1.0000E-05  1.0000E-05  1.0000E-05  1.0000E-05  1.0000E-05  1.0000E-05  1.0000E-05   0.000    
   8    0.000      1.0000E-05  1.0000E-05  1.0000E-05  1.0000E-05  1.0000E-05  1.0000E-05  1.0000E-05  1.0000E-05   0.000    
   9    0.000      1.0000E-05  1.0000E-05  1.0000E-05  1.0000E-05  1.0000E-05  1.0000E-05  1.0000E-05  1.0000E-05   0.000    
  10    0.000      1.0000E-05  1.0000E-05  1.0000E-05  1.0000E-05  1.0000E-05  1.0000E-05  1.0000E-05  1.0000E-05  1.0000E-05
  11    0.000      1.0000E-05  1.0000E-05  1.0000E-05  1.0000E-05  1.0000E-05  1.0000E-05  1.0000E-05  1.0000E-05   0.000    
  12   1.0000E-05  1.0000E-05  1.0000E-05  1.0000E-05  1.0000E-05  1.0000E-05  1.0000E-05  1.0000E-05  1.0000E-05   0.000    
  13   1.0000E-05  1.0000E-05  1.0000E-05  1.0000E-05  1.0000E-05  1.0000E-05  1.0000E-05  1.0000E-05  1.0000E-05   0.000    
  14    0.000      1.0000E-05  1.0000E-05  1.0000E-05  1.0000E-05  1.0000E-05  1.0000E-05  1.0000E-05  1.0000E-05   0.000    
  15    0.000       0.000      1.0000E-05  1.0000E-05  1.0000E-05  1.0000E-05   0.000       0.000       0.000       0.000    



            LAND SURFACE VERTICAL K
 READING ON UNIT   19 WITH FORMAT: (10F4.0)            

            1           2           3           4           5           6           7           8           9          10
 ........................................................................................................................
   1   1.0000E-05  1.0000E-05   0.000       0.000       0.000       0.000       0.000       0.000       0.000       0.000    
   2   1.0000E-05  1.0000E-05  1.0000E-05   0.000       0.000      1.0000E-05  1.0000E-05  1.0000E-05   0.000       0.000    
   3    0.000      1.0000E-05  1.0000E-05  1.0000E-05  1.0000E-05  1.0000E-05  1.0000E-05  1.0000E-05   0.000       0.000    
   4   1.0000E-05  1.0000E-05  1.0000E-05  1.0000E-05  1.0000E-05  1.0000E-05  1.0000E-05  1.0000E-05  1.0000E-05   0.000    
   5   1.0000E-05  1.0000E-05  1.0000E-05  1.0000E-05  1.0000E-05  1.0000E-05  1.0000E-05  1.0000E-05  1.0000E-05  1.0000E-05
   6   1.0000E-05  1.0000E-05  1.0000E-05  1.0000E-05  1.0000E-05  1.0000E-05  1.0000E-05  1.0000E-05  1.0000E-05  1.0000E-05
   7   1.0000E-05  1.0000E-05  1.0000E-05  1.0000E-05  1.0000E-05  1.0000E-05  1.0000E-05  1.0000E-05  1.0000E-05   0.000    
   8    0.000      1.0000E-05  1.0000E-05  1.0000E-05  1.0000E-05  1.0000E-05  1.0000E-05  1.0000E-05  1.0000E-05   0.000    
   9    0.000      1.0000E-05  1.0000E-05  1.0000E-05  1.0000E-05  1.0000E-05  1.0000E-05  1.0000E-05  1.0000E-05   0.000    
  10    0.000      1.0000E-05  1.0000E-05  1.0000E-05  1.0000E-05  1.0000E-05  1.0000E-05  1.0000E-05  1.0000E-05  1.0000E-05
  11    0.000      1.0000E-05  1.0000E-05  1.0000E-05  1.0000E-05  1.0000E-05  1.0000E-05  1.0000E-05  1.0000E-05   0.000    
  12   1.0000E-05  1.0000E-05  1.0000E-05  1.0000E-05  1.0000E-05  1.0000E-05  1.0000E-05  1.0000E-05  1.0000E-05   0.000    
  13   1.0000E-05  1.0000E-05  1.0000E-05  1.0000E-05  1.0000E-05  1.0000E-05  1.0000E-05  1.0000E-05  1.0000E-05   0.000    
  14    0.000      1.0000E-05  1.0000E-05  1.0000E-05  1.0000E-05  1.0000E-05  1.0000E-05  1.0000E-05  1.0000E-05   0.000    
  15    0.000       0.000      1.0000E-05  1.0000E-05  1.0000E-05  1.0000E-05   0.000       0.000       0.000       0.000    

     BROOKS-COREY EPSILON =   5.50000    

  SATURATED WATER CONTENT =  0.220000    

   RESIDUAL WATER CONTENT =  5.000000E-02

    INITIAL WATER CONTENT =  7.000000E-02

UNSATURATED FLOW RESULTS WILL BE PRINTED TO SEPARATE FILES FOR SELECTED MODEL CELLS, AND TIME STEPS AS DEFINED BY OUTPUT CONTROL PACKAGE 

SELECTED MODEL CELLS ARE: 
 ROW NUMBER  COLUMN NUMBER  FORTRAN UNIT NUMBER  OUTPUT OPTION


       6             4                 65                 1
       6             5                 66                 2
       8             4                 67                 3
       0             0                 68                 4



   9 GAGING STATIONS WERE SPECIFIED.
     (Lakes are identified by a negative value of the Lake Number)
     RECORDS WILL BE WRITTEN TO SEPARATE OUTPUT FILES REPRESENTED BY FOLLOWING UNIT NUMBERS:

 Stream Gages:
  GAGE #   SEGMENT   REACH   UNIT   OUTTYPE
       1       1       4      83       1
       2       2       5      84       1
       3       3       5      85       1
       4       4       3      86       1
       5       5       4      87       4
       6       6       5      88       4
       7       7       3      89       4
       8       8       6      90       4
       9       9       1      91       5





 AWU -- AWU PACKAGE FOR NWT VERSION 1.1.3,  8/01/2017 INPUT READ FROM UNIT   57
 # AWU options

 PROCESSING AWU OPTIONS
 
 AGRICULTURAL DEMANDS WILL BE CALCULATED USING ET DEFICIT
  IRRIGATION RATE ADJUSTMENT FACTOR WAS SET EQUAL TO.  1000.000
 
 
 OPTION TO APPLY SURFACE WATER AS IRRIGATION IS ACTIVE. DIVERTED SURFACE WATER WILL BE APPLIED TO          1 CELLS/RHUS.
 
 
 OPTION TO PUMP SUPPLEMENTARY WATER FOR SURFACE DIVERSION SHORTFALL IS ACTIVATED.  A TOTAL OF             6 SUPPLEMENTAL WELLS ARE ACTIVE
 
 
 OPTION TO APPLY PUMPED WATER AS IRRIGATION IS ACTIVE. PUMPED IRRIGATION WATER WILL BE APPLIED TO          6 CELLS/RHUS.
 
 
 THE MAXIMUM NUMBER OF WELLS FOR SUPPLEMENTING DIVERSIONS OR APPLYING IRRIGATION IS          6 WELLS.
 
 
  UNFORMATTED CELL BY CELL RATES FOR SUP AND IRR WELLS WILL BE SAVED TO FILE UNIT NUMBER         -2
 
 
  UNFORMATTED CELL BY CELL RATES FOR SUP AND IRR WELLS WILL BE SAVED TO FILE UNIT NUMBER         -2
 
 
  UNFORMATTED CELL BY CELL RATES FOR SUP AND IRR WELLS WILL BE SAVED TO FILE UNIT NUMBER         -2
 
 
  UNFORMATTED CELL BY CELL RATES FOR SUP AND IRR WELLS WILL BE SAVED TO FILE UNIT NUMBER         -2
 
 
  GROUND WATER IRRIGATION, POTENTIAL AND ACTUAL ET WILL BE SAVED TO TIMES SERIES OUTPUT FILES.
 
 
  SURFACE WATER IRRIGATION, POTENTIAL AND ACTUAL ET WILL BE SAVED TO TIMES SERIES OUTPUT FILES.
 
 
  SURFACE WATER IRRIGATION, POTENTIAL AND ACTUAL ET WILL BE SAVED TO TIMES SERIES OUTPUT FILES.
 

 END PROCESSING AWU OPTIONS
 # AWU time series

 PROCESSING TIME SERIES

 FINISHED READING TIME SERIES
 A total number of          1 AWU output time series files were activated for SURFACE WATER 
 A total number of          1 AWU output time series files were activated for GROUNDWATER 
 A total number of          1 AWU output time series files were activated for SURFACE WATER ET
 A total number of          0 AWU output time series files were activated for GROUNDWATER ET
1
                            STRESS PERIOD NO.    1, LENGTH =   86400.00    
                            -----------------------------------------------

                              NUMBER OF TIME STEPS =     1

                               MULTIPLIER FOR DELT =     1.000

                            INITIAL TIME STEP SIZE =   86400.00    

 BOUND. NO. LAYER   ROW   COL     STAGE      CONDUCTANCE         
 ----------------------------------------------------------------
      1      1     13      1       988.0          0.3800E-01
      2      1     14      9       1045.          0.3800E-01

      2 GHB CELLS



 CLASSIFICATION & COUNT OF STREAM SEGMENTS BASED ON SOURCE OF INFLOW:

                HEADWATER     DIVERSION     RECEIVES TRIBUTARY FLOW
                ---------     ---------     -----------------------
                     3              2               4



                    INPUT DATA FOR EACH STREAM SEGMENT
 ---------------------------------------------------------------------------------------------

 SEGMENT    SEG.     INFLOW   OVERLAND   STREAM    STREAM   ICALC  OUTFLOW  DIVERSION PRIORITY
    NO.    LENGTH     RATE     RUNOFF      ET       PPT.    METH.  TO SEG.  FROM SEG.    NO.

      1  2.305E+04 2.500E+01 0.000E+00 0.000E+00 0.000E+00    4        2        0        0
      2  2.650E+04 0.000E+00 0.000E+00 0.000E+00 0.000E+00    1        6        0        0
      3  2.750E+04 2.000E+00 0.000E+00 0.000E+00 0.000E+00    0        5        1        0
      4  1.100E+04 1.000E+01 0.000E+00 0.000E+00 0.000E+00    1        5        0        0
      5  1.500E+04 0.000E+00 0.000E+00 0.000E+00 0.000E+00    3        6        0        0
      6  2.200E+04 0.000E+00 0.000E+00 0.000E+00 0.000E+00    1        8        0        0
      7  1.550E+04 1.500E+02 0.000E+00 0.000E+00 0.000E+00    2        8        0        0
      8  2.800E+04 0.000E+00 0.000E+00 0.000E+00 0.000E+00    2        0        0        0
      9  6.000E+03 0.000E+00 0.000E+00 0.000E+00 0.000E+00    1        0        2        0


         STREAMBED PROPERTIES AND STREAM DIMENSIONS

 SEGMENT     BED HYD. COND.      BED THICKNESS     ELEV.-TOP OF BED     WIDTH OF STREAM     DEPTH OF STREAM    STREAM ROUGHNESS
    No.     UPPER     LOWER     UPPER     LOWER     UPPER     LOWER     UPPER     LOWER     UPPER     LOWER   CHANNEL      BANK

     1  3.000E-05 3.000E-05 3.000E+00 3.000E+00 1.095E+03 1.075E+03
     2  3.000E-05 3.000E-05 3.000E+00 3.000E+00 1.075E+03 1.050E+03 1.200E+01 1.200E+01                     3.000E-02
     3  3.000E-05 3.000E-05 2.000E+00 2.000E+00 1.075E+03 1.060E+03 1.000E+01 6.000E+00 2.000E+00 1.000E+00
     4  3.000E-05 3.000E-05 3.000E+00 3.000E+00 1.080E+03 1.060E+03 1.000E+01 1.000E+01                     3.000E-02
     5  3.000E-05 3.000E-05 3.000E+00 3.000E+00 1.060E+03 1.045E+03
     6  3.000E-05 3.000E-05 3.000E+00 3.000E+00 1.045E+03 1.025E+03 1.200E+01 1.200E+01                     3.000E-02
     7  6.000E-05 6.000E-05 3.000E+00 3.000E+00 1.040E+03 1.025E+03                                         2.500E-02 4.500E-02
     8  6.000E-05 6.000E-05 3.000E+00 3.000E+00 1.025E+03 9.900E+02                                         2.500E-02 4.500E-02
     9  0.000E+00 0.000E+00 3.000E+00 3.000E+00 1.079E+03 1.078E+03 4.000E+00 4.000E+00                     3.000E-02

  EIGHT POINT CROSS-SECTION DATA FOR SEGMENTS WITH ICALC = 2
    X VALUES X VALUES START FROM LEFT SIDE LOOKING DOWNSTREAM

     SEGMENT NO.        X1        X2        X3        X4        X5        X6        X7        X8
            7      0.000E+00 1.000E+01 8.000E+01 1.000E+02 1.500E+02 1.700E+02 2.400E+02 2.500E+02
            8      0.000E+00 1.000E+01 8.000E+01 1.000E+02 1.500E+02 1.700E+02 2.400E+02 2.500E+02

    Z VALUES ARE RELATIVE TO STREAMBED ELEVATION

     SEGMENT NO.          Z1        Z2        Z3        Z4        Z5        Z6        Z7        Z8
            7      2.000E+01 1.300E+01 1.000E+01 2.000E+00 0.000E+00 1.000E+01 1.300E+01 2.000E+01
            8      2.500E+01 1.700E+01 1.300E+01 4.000E+00 0.000E+00 1.000E+01 1.600E+01 2.000E+01

 STREAMFLOW RELATION WITH DEPTH IS BASED ON EQUATION Q = CDPTH*(DEPTH)**FDPTH
 STREAMFLOW RELATION WITH WIDTH IS BASED ON EQUATION Q = AWDTH*(WIDTH)**BWDTH

 SEGMENT NO.      CDPTH     FDPTH    AWDTH     BWDTH

          5 3.000E-01 3.500E-01 3.800E+00 6.000E-01

 STREAMFLOW RELATION WITH DEPTH AND WIDTH IS BASED ON TABULATED VALUES

  SEGMENT NO.   STREAMFLOW       DEPTH       WIDTH

          1     5.0000E-01   2.5000E-01   3.0000E+00
          1     1.0000E+00   4.0000E-01   3.5000E+00
          1     2.0000E+00   5.5000E-01   4.2000E+00
          1     4.0000E+00   7.0000E-01   5.3000E+00
          1     7.0000E+00   8.0000E-01   7.0000E+00
          1     1.0000E+01   9.0000E-01   8.5000E+00
          1     2.0000E+01   1.1000E+00   1.2000E+01
          1     3.0000E+01   1.2500E+00   1.4000E+01
          1     5.0000E+01   1.4000E+00   1.7000E+01
          1     7.5000E+01   1.7000E+00   2.0000E+01
          1     1.0000E+02   1.8000E+00   2.2000E+01



TABULAR INFLOWS WERE READ FOR SEGMENT      1
FROM FILE UNIT NUMBER     55

          TIMES                    INFLOWS
             0.0000000000         5.0000000000
         86400.0000000000        22.0000000000
       2760000.0000000000        42.0000000000
       5270000.0000000000        77.0000000000
       7950000.0000000000        28.0000000000
      10500000.0000000000        99.0000000000
      13200000.0000000000        83.0000000000
      15800000.0000000000        75.0000000000
      18500000.0000000000        61.0000000000
      21200000.0000000000        47.0000000000
      23800000.0000000000        35.0000000000
      26400000.0000000000        26.0000000000
      29000000.0000000000        23.0000000000
      31700000.0000000000        19.0000000000
      34400000.0000000000        21.0000000000
      36800000.0000000000        98.0000000000
      39500000.0000000000        75.0000000000
      42100000.0000000000        63.0000000000
      44800000.0000000000        58.0000000000
      47300000.0000000000        54.0000000000
      50000000.0000000000        37.0000000000
      52700000.0000000000        25.0000000000
      55300000.0000000000        22.0000000000
      58000000.0000000000        21.0000000000
      60600000.0000000000        20.0000000000
      63200000.0000000000        19.0000000000
TABULAR INFLOWS WERE READ FOR SEGMENT      9
FROM FILE UNIT NUMBER     56

          TIMES                    INFLOWS
             0.0000000000         0.0000000000
         86400.0000000000         0.0000000000
        172800.0000000000         0.0000000000
        259200.0000000000         0.0000000000
        345600.0000000000         0.0000000000
        432000.0000000000         0.0000000000
        518400.0000000000         0.0000000000
        604800.0000000000         0.0000000000
        691200.0000000000         0.0000000000
        777600.0000000000         0.0000000000
        864000.0000000000         0.0000000000
        950400.0000000000         0.0000000000
       1036800.0000000000         0.0000000000
       1123200.0000000000         0.0000000000
       1209600.0000000000         0.0000000000
       1296000.0000000000         0.0000000000
       1382400.0000000000         0.0000000000
       1468800.0000000000         0.0000000000
       1555200.0000000000         0.0000000000
       1641600.0000000000         0.0000000000
       1728000.0000000000         0.0000000000
       1814400.0000000000         0.0000000000
       1900800.0000000000         0.0000000000
       1987200.0000000000         0.0000000000
       2073600.0000000000         0.0000000000
       2160000.0000000000         0.0000000000
       2246400.0000000000         0.0000000000
       2332800.0000000000         0.0000000000
       2419200.0000000000         0.0000000000
       2505600.0000000000         0.0000000000
       2592000.0000000000         0.0000000000
       2678400.0000000000         0.0000000000
       2764800.0000000000         0.0000000000
       2851200.0000000000         0.0000000000
       2937600.0000000000         0.0000000000
       3024000.0000000000         0.0000000000
       3110400.0000000000         0.0000000000
       3196800.0000000000         0.0000000000
       3283200.0000000000         0.0000000000
       3369600.0000000000         0.0000000000
       3456000.0000000000         0.0000000000
       3542400.0000000000         0.0000000000
       3628800.0000000000         0.0000000000
       3715200.0000000000         0.0000000000
       3801600.0000000000         0.0000000000
       3888000.0000000000         0.0000000000
       3974400.0000000000         0.0000000000
       4060800.0000000000         0.0000000000
       4147200.0000000000         0.0000000000
       4233600.0000000000         0.0000000000
       4320000.0000000000         0.0000000000
       4406400.0000000000         0.0000000000
       4492800.0000000000         0.0000000000
       4579200.0000000000         0.0000000000
       4665600.0000000000         0.0000000000
       4752000.0000000000         0.0000000000
       4838400.0000000000         0.0000000000
       4924800.0000000000         0.0000000000
       5011200.0000000000         0.0000000000
       5097600.0000000000         0.0000000000
       5184000.0000000000         0.0000000000
       5270400.0000000000         0.0000000000
       5356800.0000000000         0.0000000000
       5443200.0000000000         0.0000000000
       5529600.0000000000         0.0000000000
       5616000.0000000000         0.0000000000
       5702400.0000000000         0.0000000000
       5788800.0000000000         0.0000000000
       5875200.0000000000         0.0000000000
       5961600.0000000000         0.0000000000
       6048000.0000000000         0.0000000000
       6134400.0000000000         0.0000000000
       6220800.0000000000         0.0000000000
       6307200.0000000000         0.0000000000
       6393600.0000000000         0.0000000000
       6480000.0000000000         0.0000000000
       6566400.0000000000         0.0000000000
       6652800.0000000000         0.0000000000
       6739200.0000000000         0.0000000000
       6825600.0000000000         0.0000000000
       6912000.0000000000         0.0000000000
       6998400.0000000000         0.0000000000
       7084800.0000000000         0.0000000000
       7171200.0000000000         0.0000000000
       7257600.0000000000         0.0000000000
       7344000.0000000000         0.0000000000
       7430400.0000000000         0.0000000000
       7516800.0000000000         0.0000000000
       7603200.0000000000         0.0000000000
       7689600.0000000000         0.0000000000
       7776000.0000000000         0.0000000000
       7862400.0000000000        55.0000000000
       7948800.0000000000        55.0000000000
       8035200.0000000000        55.0000000000
       8121600.0000000000        55.0000000000
       8208000.0000000000        55.0000000000
       8294400.0000000000        55.0000000000
       8380800.0000000000        55.0000000000
       8467200.0000000000         0.0000000000
       8553600.0000000000         0.0000000000
       8640000.0000000000         0.0000000000
       8726400.0000000000         0.0000000000
       8812800.0000000000         0.0000000000
       8899200.0000000000         0.0000000000
       8985600.0000000000         0.0000000000
       9072000.0000000000        55.0000000000
       9158400.0000000000        55.0000000000
       9244800.0000000000        55.0000000000
       9331200.0000000000        55.0000000000
       9417600.0000000000        55.0000000000
       9504000.0000000000        55.0000000000
       9590400.0000000000        55.0000000000
       9676800.0000000000         0.0000000000
       9763200.0000000000         0.0000000000
       9849600.0000000000         0.0000000000
       9936000.0000000000         0.0000000000
      10022000.0000000000         0.0000000000
      10109000.0000000000         0.0000000000
      10195000.0000000000         0.0000000000
      10282000.0000000000         0.0000000000
      10368000.0000000000         0.0000000000
      10454000.0000000000        55.0000000000
      10541000.0000000000        55.0000000000
      10627000.0000000000        55.0000000000
      10714000.0000000000        55.0000000000
      10800000.0000000000        55.0000000000
      10886000.0000000000        55.0000000000
      10973000.0000000000        55.0000000000
      11059000.0000000000         0.0000000000
      11146000.0000000000         0.0000000000
      11232000.0000000000         0.0000000000
      11318000.0000000000         0.0000000000
      11405000.0000000000         0.0000000000
      11491000.0000000000         0.0000000000
      11578000.0000000000         0.0000000000
      11664000.0000000000        55.0000000000
      11750000.0000000000        55.0000000000
      11837000.0000000000        55.0000000000
      11923000.0000000000        55.0000000000
      12010000.0000000000        55.0000000000
      12096000.0000000000        55.0000000000
      12182000.0000000000        55.0000000000
      12269000.0000000000         0.0000000000
      12355000.0000000000         0.0000000000
      12442000.0000000000         0.0000000000
      12528000.0000000000         0.0000000000
      12614000.0000000000         0.0000000000
      12701000.0000000000         0.0000000000
      12787000.0000000000         0.0000000000
      12874000.0000000000        55.0000000000
      12960000.0000000000        55.0000000000
      13046000.0000000000        55.0000000000
      13133000.0000000000        55.0000000000
      13219000.0000000000        55.0000000000
      13306000.0000000000        55.0000000000
      13392000.0000000000        55.0000000000
      13478000.0000000000         0.0000000000
      13565000.0000000000         0.0000000000
      13651000.0000000000         0.0000000000
      13738000.0000000000         0.0000000000
      13824000.0000000000         0.0000000000
      13910000.0000000000         0.0000000000
      13997000.0000000000         0.0000000000
      14083000.0000000000        55.0000000000
      14170000.0000000000        55.0000000000
      14256000.0000000000        55.0000000000
      14342000.0000000000        55.0000000000
      14429000.0000000000        55.0000000000
      14515000.0000000000        55.0000000000
      14602000.0000000000        55.0000000000
      14688000.0000000000         0.0000000000
      14774000.0000000000         0.0000000000
      14861000.0000000000         0.0000000000
      14947000.0000000000         0.0000000000
      15034000.0000000000         0.0000000000
      15120000.0000000000         0.0000000000
      15206000.0000000000         0.0000000000
      15293000.0000000000        55.0000000000
      15379000.0000000000        55.0000000000
      15466000.0000000000        55.0000000000
      15552000.0000000000        55.0000000000
      15638000.0000000000        55.0000000000
      15725000.0000000000        55.0000000000
      15811000.0000000000        55.0000000000
      15898000.0000000000         0.0000000000
      15984000.0000000000         0.0000000000
      16070000.0000000000         0.0000000000
      16157000.0000000000         0.0000000000
      16243000.0000000000         0.0000000000
      16330000.0000000000         0.0000000000
      16416000.0000000000         0.0000000000
      16502000.0000000000        55.0000000000
      16589000.0000000000        55.0000000000
      16675000.0000000000        55.0000000000
      16762000.0000000000        55.0000000000
      16848000.0000000000        55.0000000000
      16934000.0000000000        55.0000000000
      17021000.0000000000        55.0000000000
      17107000.0000000000         0.0000000000
      17194000.0000000000         0.0000000000
      17280000.0000000000         0.0000000000
      17366000.0000000000         0.0000000000
      17453000.0000000000         0.0000000000
      17539000.0000000000         0.0000000000
      17626000.0000000000         0.0000000000
      17712000.0000000000        55.0000000000
      17798000.0000000000        55.0000000000
      17885000.0000000000        55.0000000000
      17971000.0000000000        55.0000000000
      18058000.0000000000        55.0000000000
      18144000.0000000000        55.0000000000
      18230000.0000000000        55.0000000000
      18317000.0000000000         0.0000000000
      18403000.0000000000         0.0000000000
      18490000.0000000000         0.0000000000
      18576000.0000000000         0.0000000000
      18662000.0000000000         0.0000000000
      18749000.0000000000         0.0000000000
      18835000.0000000000         0.0000000000
      18922000.0000000000        55.0000000000
      19008000.0000000000        55.0000000000
      19094000.0000000000        55.0000000000
      19181000.0000000000        55.0000000000
      19267000.0000000000        55.0000000000
      19354000.0000000000        55.0000000000
      19440000.0000000000        55.0000000000
      19526000.0000000000         0.0000000000
      19613000.0000000000         0.0000000000
      19699000.0000000000         0.0000000000
      19786000.0000000000         0.0000000000
      19872000.0000000000         0.0000000000
      19958000.0000000000         0.0000000000
      20045000.0000000000         0.0000000000
      20131000.0000000000        55.0000000000
      20218000.0000000000        55.0000000000
      20304000.0000000000        55.0000000000
      20390000.0000000000        55.0000000000
      20477000.0000000000        55.0000000000
      20563000.0000000000        55.0000000000
      20650000.0000000000        55.0000000000
      20736000.0000000000         0.0000000000
      20822000.0000000000         0.0000000000
      20909000.0000000000         0.0000000000
      20995000.0000000000         0.0000000000
      21082000.0000000000         0.0000000000
      21168000.0000000000         0.0000000000
      21254000.0000000000         0.0000000000
      21341000.0000000000        55.0000000000
      21427000.0000000000        55.0000000000
      21514000.0000000000        55.0000000000
      21600000.0000000000        55.0000000000
      21686000.0000000000        55.0000000000
      21773000.0000000000        55.0000000000
      21859000.0000000000        55.0000000000
      21946000.0000000000         0.0000000000
      22032000.0000000000         0.0000000000
      22118000.0000000000         0.0000000000
      22205000.0000000000         0.0000000000
      22291000.0000000000         0.0000000000
      22378000.0000000000         0.0000000000
      22464000.0000000000         0.0000000000
      22550000.0000000000        55.0000000000
      22637000.0000000000        55.0000000000
      22723000.0000000000        55.0000000000
      22810000.0000000000        55.0000000000
      22896000.0000000000        55.0000000000
      22982000.0000000000        55.0000000000
      23069000.0000000000        55.0000000000
      23155000.0000000000         0.0000000000
      23242000.0000000000         0.0000000000
      23328000.0000000000         0.0000000000
      23414000.0000000000         0.0000000000
      23501000.0000000000         0.0000000000
      23587000.0000000000         0.0000000000
      23674000.0000000000         0.0000000000
      23760000.0000000000         0.0000000000
      23846000.0000000000         0.0000000000
      23933000.0000000000         0.0000000000
      24019000.0000000000         0.0000000000
      24106000.0000000000         0.0000000000
      24192000.0000000000         0.0000000000
      24278000.0000000000         0.0000000000
      24365000.0000000000         0.0000000000
      24451000.0000000000         0.0000000000
      24538000.0000000000         0.0000000000
      24624000.0000000000         0.0000000000
      24710000.0000000000         0.0000000000
      24797000.0000000000         0.0000000000
      24883000.0000000000         0.0000000000
      24970000.0000000000         0.0000000000
      25056000.0000000000         0.0000000000
      25142000.0000000000         0.0000000000
      25229000.0000000000         0.0000000000
      25315000.0000000000         0.0000000000
      25402000.0000000000         0.0000000000
      25488000.0000000000         0.0000000000
      25574000.0000000000         0.0000000000
      25661000.0000000000         0.0000000000
      25747000.0000000000         0.0000000000
      25834000.0000000000         0.0000000000
      25920000.0000000000         0.0000000000
      26006000.0000000000         0.0000000000
      26093000.0000000000         0.0000000000
      26179000.0000000000         0.0000000000
      26266000.0000000000         0.0000000000
      26352000.0000000000         0.0000000000
      26438000.0000000000         0.0000000000
      26525000.0000000000         0.0000000000
      26611000.0000000000         0.0000000000
      26698000.0000000000         0.0000000000
      26784000.0000000000         0.0000000000
      26870000.0000000000         0.0000000000
      26957000.0000000000         0.0000000000
      27043000.0000000000         0.0000000000
      27130000.0000000000         0.0000000000
      27216000.0000000000         0.0000000000
      27302000.0000000000         0.0000000000
      27389000.0000000000         0.0000000000
      27475000.0000000000         0.0000000000
      27562000.0000000000         0.0000000000
      27648000.0000000000         0.0000000000
      27734000.0000000000         0.0000000000
      27821000.0000000000         0.0000000000
      27907000.0000000000         0.0000000000
      27994000.0000000000         0.0000000000
      28080000.0000000000         0.0000000000
      28166000.0000000000         0.0000000000
      28253000.0000000000         0.0000000000
      28339000.0000000000         0.0000000000
      28426000.0000000000         0.0000000000
      28512000.0000000000         0.0000000000
      28598000.0000000000         0.0000000000
      28685000.0000000000         0.0000000000
      28771000.0000000000         0.0000000000
      28858000.0000000000         0.0000000000
      28944000.0000000000         0.0000000000
      29030000.0000000000         0.0000000000
      29117000.0000000000         0.0000000000
      29203000.0000000000         0.0000000000
      29290000.0000000000         0.0000000000
      29376000.0000000000         0.0000000000
      29462000.0000000000         0.0000000000
      29549000.0000000000         0.0000000000
      29635000.0000000000         0.0000000000
      29722000.0000000000         0.0000000000
      29808000.0000000000         0.0000000000
      29894000.0000000000         0.0000000000
      29981000.0000000000         0.0000000000
      30067000.0000000000         0.0000000000
      30154000.0000000000         0.0000000000
      30240000.0000000000         0.0000000000
      30326000.0000000000         0.0000000000
      30413000.0000000000         0.0000000000
      30499000.0000000000         0.0000000000
      30586000.0000000000         0.0000000000
      30672000.0000000000         0.0000000000
      30758000.0000000000         0.0000000000
      30845000.0000000000         0.0000000000
      30931000.0000000000         0.0000000000
      31018000.0000000000         0.0000000000
      31104000.0000000000         0.0000000000
      31190000.0000000000         0.0000000000
      31277000.0000000000         0.0000000000
      31363000.0000000000         0.0000000000
      31450000.0000000000         0.0000000000
      31536000.0000000000         0.0000000000
      31622000.0000000000         0.0000000000
      31709000.0000000000         0.0000000000
      31795000.0000000000         0.0000000000
      31882000.0000000000         0.0000000000
      31968000.0000000000         0.0000000000
      32054000.0000000000         0.0000000000
      32141000.0000000000         0.0000000000
      32227000.0000000000         0.0000000000
      32314000.0000000000         0.0000000000
      32400000.0000000000         0.0000000000
      32486000.0000000000         0.0000000000
      32573000.0000000000         0.0000000000
      32659000.0000000000         0.0000000000
      32746000.0000000000         0.0000000000
      32832000.0000000000         0.0000000000
      32918000.0000000000         0.0000000000
      33005000.0000000000         0.0000000000
      33091000.0000000000         0.0000000000
      33178000.0000000000         0.0000000000
      33264000.0000000000         0.0000000000
      33350000.0000000000         0.0000000000
      33437000.0000000000         0.0000000000
      33523000.0000000000         0.0000000000
      33610000.0000000000         0.0000000000
      33696000.0000000000         0.0000000000
      33782000.0000000000         0.0000000000
      33869000.0000000000         0.0000000000
      33955000.0000000000         0.0000000000
      34042000.0000000000         0.0000000000
      34128000.0000000000         0.0000000000
      34214000.0000000000         0.0000000000
      34301000.0000000000         0.0000000000
      34387000.0000000000         0.0000000000
      34474000.0000000000         0.0000000000
      34560000.0000000000         0.0000000000
      34646000.0000000000         0.0000000000
      34733000.0000000000         0.0000000000
      34819000.0000000000         0.0000000000
      34906000.0000000000         0.0000000000
      34992000.0000000000         0.0000000000
      35078000.0000000000         0.0000000000
      35165000.0000000000         0.0000000000
      35251000.0000000000         0.0000000000
      35338000.0000000000         0.0000000000
      35424000.0000000000         0.0000000000
      35510000.0000000000         0.0000000000
      35597000.0000000000         0.0000000000
      35683000.0000000000         0.0000000000
      35770000.0000000000         0.0000000000
      35856000.0000000000         0.0000000000
      35942000.0000000000         0.0000000000
      36029000.0000000000         0.0000000000
      36115000.0000000000         0.0000000000
      36202000.0000000000         0.0000000000
      36288000.0000000000         0.0000000000
      36374000.0000000000         0.0000000000
      36461000.0000000000         0.0000000000
      36547000.0000000000         0.0000000000
      36634000.0000000000         0.0000000000
      36720000.0000000000         0.0000000000
      36806000.0000000000         0.0000000000
      36893000.0000000000         0.0000000000
      36979000.0000000000         0.0000000000
      37066000.0000000000         0.0000000000
      37152000.0000000000         0.0000000000
      37238000.0000000000         0.0000000000
      37325000.0000000000         0.0000000000
      37411000.0000000000         0.0000000000
      37498000.0000000000         0.0000000000
      37584000.0000000000         0.0000000000
      37670000.0000000000         0.0000000000
      37757000.0000000000         0.0000000000
      37843000.0000000000         0.0000000000
      37930000.0000000000         0.0000000000
      38016000.0000000000         0.0000000000
      38102000.0000000000         0.0000000000
      38189000.0000000000         0.0000000000
      38275000.0000000000         0.0000000000
      38362000.0000000000         0.0000000000
      38448000.0000000000         0.0000000000
      38534000.0000000000         0.0000000000
      38621000.0000000000         0.0000000000
      38707000.0000000000         0.0000000000
      38794000.0000000000         0.0000000000
      38880000.0000000000         0.0000000000
      38966000.0000000000        55.0000000000
      39053000.0000000000        55.0000000000
      39139000.0000000000        55.0000000000
      39226000.0000000000        55.0000000000
      39312000.0000000000        55.0000000000
      39398000.0000000000        55.0000000000
      39485000.0000000000        55.0000000000
      39571000.0000000000         0.0000000000
      39658000.0000000000         0.0000000000
      39744000.0000000000         0.0000000000
      39830000.0000000000         0.0000000000
      39917000.0000000000         0.0000000000
      40003000.0000000000         0.0000000000
      40090000.0000000000         0.0000000000
      40176000.0000000000        55.0000000000
      40262000.0000000000        55.0000000000
      40349000.0000000000        55.0000000000
      40435000.0000000000        55.0000000000
      40522000.0000000000        55.0000000000
      40608000.0000000000        55.0000000000
      40694000.0000000000        55.0000000000
      40781000.0000000000         0.0000000000
      40867000.0000000000         0.0000000000
      40954000.0000000000         0.0000000000
      41040000.0000000000         0.0000000000
      41126000.0000000000         0.0000000000
      41213000.0000000000         0.0000000000
      41299000.0000000000         0.0000000000
      41386000.0000000000         0.0000000000
      41472000.0000000000         0.0000000000
      41558000.0000000000        55.0000000000
      41645000.0000000000        55.0000000000
      41731000.0000000000        55.0000000000
      41818000.0000000000        55.0000000000
      41904000.0000000000        55.0000000000
      41990000.0000000000        55.0000000000
      42077000.0000000000        55.0000000000
      42163000.0000000000         0.0000000000
      42250000.0000000000         0.0000000000
      42336000.0000000000         0.0000000000
      42422000.0000000000         0.0000000000
      42509000.0000000000         0.0000000000
      42595000.0000000000         0.0000000000
      42682000.0000000000         0.0000000000
      42768000.0000000000        55.0000000000
      42854000.0000000000        55.0000000000
      42941000.0000000000        55.0000000000
      43027000.0000000000        55.0000000000
      43114000.0000000000        55.0000000000
      43200000.0000000000        55.0000000000
      43286000.0000000000        55.0000000000
      43373000.0000000000         0.0000000000
      43459000.0000000000         0.0000000000
      43546000.0000000000         0.0000000000
      43632000.0000000000         0.0000000000
      43718000.0000000000         0.0000000000
      43805000.0000000000         0.0000000000
      43891000.0000000000         0.0000000000
      43978000.0000000000        55.0000000000
      44064000.0000000000        55.0000000000
      44150000.0000000000        55.0000000000
      44237000.0000000000        55.0000000000
      44323000.0000000000        55.0000000000
      44410000.0000000000        55.0000000000
      44496000.0000000000        55.0000000000
      44582000.0000000000         0.0000000000
      44669000.0000000000         0.0000000000
      44755000.0000000000         0.0000000000
      44842000.0000000000         0.0000000000
      44928000.0000000000         0.0000000000
      45014000.0000000000         0.0000000000
      45101000.0000000000         0.0000000000
      45187000.0000000000        55.0000000000
      45274000.0000000000        55.0000000000
      45360000.0000000000        55.0000000000
      45446000.0000000000        55.0000000000
      45533000.0000000000        55.0000000000
      45619000.0000000000        55.0000000000
      45706000.0000000000        55.0000000000
      45792000.0000000000         0.0000000000
      45878000.0000000000         0.0000000000
      45965000.0000000000         0.0000000000
      46051000.0000000000         0.0000000000
      46138000.0000000000         0.0000000000
      46224000.0000000000         0.0000000000
      46310000.0000000000         0.0000000000
      46397000.0000000000        55.0000000000
      46483000.0000000000        55.0000000000
      46570000.0000000000        55.0000000000
      46656000.0000000000        55.0000000000
      46742000.0000000000        55.0000000000
      46829000.0000000000        55.0000000000
      46915000.0000000000        55.0000000000
      47002000.0000000000         0.0000000000
      47088000.0000000000         0.0000000000
      47174000.0000000000         0.0000000000
      47261000.0000000000         0.0000000000
      47347000.0000000000         0.0000000000
      47434000.0000000000         0.0000000000
      47520000.0000000000         0.0000000000
      47606000.0000000000        55.0000000000
      47693000.0000000000        55.0000000000
      47779000.0000000000        55.0000000000
      47866000.0000000000        55.0000000000
      47952000.0000000000        55.0000000000
      48038000.0000000000        55.0000000000
      48125000.0000000000        55.0000000000
      48211000.0000000000         0.0000000000
      48298000.0000000000         0.0000000000
      48384000.0000000000         0.0000000000
      48470000.0000000000         0.0000000000
      48557000.0000000000         0.0000000000
      48643000.0000000000         0.0000000000
      48730000.0000000000         0.0000000000
      48816000.0000000000        55.0000000000
      48902000.0000000000        55.0000000000
      48989000.0000000000        55.0000000000
      49075000.0000000000        55.0000000000
      49162000.0000000000        55.0000000000
      49248000.0000000000        55.0000000000
      49334000.0000000000        55.0000000000
      49421000.0000000000         0.0000000000
      49507000.0000000000         0.0000000000
      49594000.0000000000         0.0000000000
      49680000.0000000000         0.0000000000
      49766000.0000000000         0.0000000000
      49853000.0000000000         0.0000000000
      49939000.0000000000         0.0000000000
      50026000.0000000000        55.0000000000
      50112000.0000000000        55.0000000000
      50198000.0000000000        55.0000000000
      50285000.0000000000        55.0000000000
      50371000.0000000000        55.0000000000
      50458000.0000000000        55.0000000000
      50544000.0000000000        55.0000000000
      50630000.0000000000         0.0000000000
      50717000.0000000000         0.0000000000
      50803000.0000000000         0.0000000000
      50890000.0000000000         0.0000000000
      50976000.0000000000         0.0000000000
      51062000.0000000000         0.0000000000
      51149000.0000000000         0.0000000000
      51235000.0000000000        55.0000000000
      51322000.0000000000        55.0000000000
      51408000.0000000000        55.0000000000
      51494000.0000000000        55.0000000000
      51581000.0000000000        55.0000000000
      51667000.0000000000        55.0000000000
      51754000.0000000000        55.0000000000
      51840000.0000000000         0.0000000000
      51926000.0000000000         0.0000000000
      52013000.0000000000         0.0000000000
      52099000.0000000000         0.0000000000
      52186000.0000000000         0.0000000000
      52272000.0000000000         0.0000000000
      52358000.0000000000         0.0000000000
      52445000.0000000000        55.0000000000
      52531000.0000000000        55.0000000000
      52618000.0000000000        55.0000000000
      52704000.0000000000        55.0000000000
      52790000.0000000000        55.0000000000
      52877000.0000000000        55.0000000000
      52963000.0000000000        55.0000000000
      53050000.0000000000         0.0000000000
      53136000.0000000000         0.0000000000
      53222000.0000000000         0.0000000000
      53309000.0000000000         0.0000000000
      53395000.0000000000         0.0000000000
      53482000.0000000000         0.0000000000
      53568000.0000000000         0.0000000000
      53654000.0000000000        55.0000000000
      53741000.0000000000        55.0000000000
      53827000.0000000000        55.0000000000
      53914000.0000000000        55.0000000000
      54000000.0000000000        55.0000000000
      54086000.0000000000        55.0000000000
      54173000.0000000000        55.0000000000
      54259000.0000000000         0.0000000000
      54346000.0000000000         0.0000000000
      54432000.0000000000         0.0000000000
      54518000.0000000000         0.0000000000
      54605000.0000000000         0.0000000000
      54691000.0000000000         0.0000000000
      54778000.0000000000         0.0000000000
      54864000.0000000000         0.0000000000
      54950000.0000000000         0.0000000000
      55037000.0000000000         0.0000000000
      55123000.0000000000         0.0000000000
      55210000.0000000000         0.0000000000
      55296000.0000000000         0.0000000000
      55382000.0000000000         0.0000000000
      55469000.0000000000         0.0000000000
      55555000.0000000000         0.0000000000
      55642000.0000000000         0.0000000000
      55728000.0000000000         0.0000000000
      55814000.0000000000         0.0000000000
      55901000.0000000000         0.0000000000
      55987000.0000000000         0.0000000000
      56074000.0000000000         0.0000000000
      56160000.0000000000         0.0000000000
      56246000.0000000000         0.0000000000
      56333000.0000000000         0.0000000000
      56419000.0000000000         0.0000000000
      56506000.0000000000         0.0000000000
      56592000.0000000000         0.0000000000
      56678000.0000000000         0.0000000000
      56765000.0000000000         0.0000000000
      56851000.0000000000         0.0000000000
      56938000.0000000000         0.0000000000
      57024000.0000000000         0.0000000000
      57110000.0000000000         0.0000000000
      57197000.0000000000         0.0000000000
      57283000.0000000000         0.0000000000
      57370000.0000000000         0.0000000000
      57456000.0000000000         0.0000000000
      57542000.0000000000         0.0000000000
      57629000.0000000000         0.0000000000
      57715000.0000000000         0.0000000000
      57802000.0000000000         0.0000000000
      57888000.0000000000         0.0000000000
      57974000.0000000000         0.0000000000
      58061000.0000000000         0.0000000000
      58147000.0000000000         0.0000000000
      58234000.0000000000         0.0000000000
      58320000.0000000000         0.0000000000
      58406000.0000000000         0.0000000000
      58493000.0000000000         0.0000000000
      58579000.0000000000         0.0000000000
      58666000.0000000000         0.0000000000
      58752000.0000000000         0.0000000000
      58838000.0000000000         0.0000000000
      58925000.0000000000         0.0000000000
      59011000.0000000000         0.0000000000
      59098000.0000000000         0.0000000000
      59184000.0000000000         0.0000000000
      59270000.0000000000         0.0000000000
      59357000.0000000000         0.0000000000
      59443000.0000000000         0.0000000000
      59530000.0000000000         0.0000000000
      59616000.0000000000         0.0000000000
      59702000.0000000000         0.0000000000
      59789000.0000000000         0.0000000000
      59875000.0000000000         0.0000000000
      59962000.0000000000         0.0000000000
      60048000.0000000000         0.0000000000
      60134000.0000000000         0.0000000000
      60221000.0000000000         0.0000000000
      60307000.0000000000         0.0000000000
      60394000.0000000000         0.0000000000
      60480000.0000000000         0.0000000000
      60566000.0000000000         0.0000000000
      60653000.0000000000         0.0000000000
      60739000.0000000000         0.0000000000
      60826000.0000000000         0.0000000000
      60912000.0000000000         0.0000000000
      60998000.0000000000         0.0000000000
      61085000.0000000000         0.0000000000
      61171000.0000000000         0.0000000000
      61258000.0000000000         0.0000000000
      61344000.0000000000         0.0000000000
      61430000.0000000000         0.0000000000
[...]
          0                 3           1             4    7     1       0.3180346767E-04       4    7    1         0.1766850151E-02      0.4168301276E-02

    ------------------------------------------------
       NWT REQUIRED            3 OUTER ITERATIONS 
       AND A TOTAL OF          5 INNER ITERATIONS.
    ------------------------------------------------

 NO OUTPUT CONTROL FOR STRESS PERIOD   25   TIME STEP   23
 
 SOLVING FOR HEAD 
                                                   Max.-Head-Change                         Max.-Flux-Residual
  Residual-Control   Outer-Iter.   Inner-Iter.     Column Row Layer    Maximum-Head-Change  Column Row Layer    Maximum-Flux-Residual          L2-NORM 
          0                 1           2             4    7     1       0.4749469202E-02       4    7    1         0.2496660274E+00      0.5938335053E+00
          0                 2           2             4    7     1      -0.4619943667E-03       4    7    1        -0.2496663845E-01      0.5868819966E-01
          0                 3           1             4    7     1       0.3146009924E-04       4    7    1         0.1747665122E-02      0.4131769920E-02

    ------------------------------------------------
       NWT REQUIRED            3 OUTER ITERATIONS 
       AND A TOTAL OF          5 INNER ITERATIONS.
    ------------------------------------------------

 NO OUTPUT CONTROL FOR STRESS PERIOD   25   TIME STEP   24
 
 SOLVING FOR HEAD 
                                                   Max.-Head-Change                         Max.-Flux-Residual
  Residual-Control   Outer-Iter.   Inner-Iter.     Column Row Layer    Maximum-Head-Change  Column Row Layer    Maximum-Flux-Residual          L2-NORM 
          0                 1           2             4    7     1       0.4698315659E-02       4    7    1         0.2469614483E+00      0.5887453803E+00
          0                 2           2             4    7     1      -0.4570185080E-03       4    7    1        -0.2469617961E-01      0.5817313398E-01
          0                 3           1             4    7     1       0.3112126193E-04       4    7    1         0.1728732998E-02      0.4095756020E-02

    ------------------------------------------------
       NWT REQUIRED            3 OUTER ITERATIONS 
       AND A TOTAL OF          5 INNER ITERATIONS.
    ------------------------------------------------

 NO OUTPUT CONTROL FOR STRESS PERIOD   25   TIME STEP   25
 
 SOLVING FOR HEAD 
                                                   Max.-Head-Change                         Max.-Flux-Residual
  Residual-Control   Outer-Iter.   Inner-Iter.     Column Row Layer    Maximum-Head-Change  Column Row Layer    Maximum-Flux-Residual          L2-NORM 
          0                 1           2             4    7     1       0.4648110233E-02       4    7    1         0.2443071750E+00      0.5837451138E+00
          0                 2           2             4    7     1      -0.4521348757E-03       4    7    1        -0.2443075136E-01      0.5766713160E-01
          0                 3           1             4    7     1       0.3078870474E-04       4    7    1         0.1710153008E-02      0.4060368203E-02

    ------------------------------------------------
       NWT REQUIRED            3 OUTER ITERATIONS 
       AND A TOTAL OF          5 INNER ITERATIONS.
    ------------------------------------------------

 NO OUTPUT CONTROL FOR STRESS PERIOD   25   TIME STEP   26
 
 SOLVING FOR HEAD 
                                                   Max.-Head-Change                         Max.-Flux-Residual
  Residual-Control   Outer-Iter.   Inner-Iter.     Column Row Layer    Maximum-Head-Change  Column Row Layer    Maximum-Flux-Residual          L2-NORM 
          0                 1           2             4    7     1       0.4598826409E-02       4    7    1         0.2417020979E+00      0.5788275623E+00
          0                 2           2             4    7     1      -0.4473408912E-03       4    7    1        -0.2417024280E-01      0.5716992137E-01
          0                 3           1             4    7     1       0.3046225231E-04       4    7    1         0.1691917431E-02      0.4025694121E-02

    ------------------------------------------------
       NWT REQUIRED            3 OUTER ITERATIONS 
       AND A TOTAL OF          5 INNER ITERATIONS.
    ------------------------------------------------

 NO OUTPUT CONTROL FOR STRESS PERIOD   25   TIME STEP   27
 
 SOLVING FOR HEAD 
                                                   Max.-Head-Change                         Max.-Flux-Residual
  Residual-Control   Outer-Iter.   Inner-Iter.     Column Row Layer    Maximum-Head-Change  Column Row Layer    Maximum-Flux-Residual          L2-NORM 
          0                 1           2             4    7     1       0.4550172362E-02       4    7    1         0.2391300305E+00      0.5739862547E+00
          0                 2           2             4    7     1      -0.4426081664E-03       4    7    1        -0.2391303523E-01      0.5668113005E-01
          0                 3           1             4    7     1       0.3013997123E-04       4    7    1         0.1673912871E-02      0.3991560368E-02

    ------------------------------------------------
       NWT REQUIRED            3 OUTER ITERATIONS 
       AND A TOTAL OF          5 INNER ITERATIONS.
    ------------------------------------------------

 NO OUTPUT CONTROL FOR STRESS PERIOD   25   TIME STEP   28
 
 SOLVING FOR HEAD 
                                                   Max.-Head-Change                         Max.-Flux-Residual
  Residual-Control   Outer-Iter.   Inner-Iter.     Column Row Layer    Maximum-Head-Change  Column Row Layer    Maximum-Flux-Residual          L2-NORM 
          0                 1           2             4    7     1       0.4502404989E-02       4    7    1         0.2366054517E+00      0.5692132441E+00
          0                 2           2             4    7     1      -0.4379616913E-03       4    7    1        -0.2366057651E-01      0.5620043386E-01
          0                 3           1             4    7     1       0.2982356345E-04       4    7    1         0.1656240759E-02      0.3958016762E-02

    ------------------------------------------------
       NWT REQUIRED            3 OUTER ITERATIONS 
       AND A TOTAL OF          5 INNER ITERATIONS.
    ------------------------------------------------

 NO OUTPUT CONTROL FOR STRESS PERIOD   25   TIME STEP   29
 
 SOLVING FOR HEAD 
                                                   Max.-Head-Change                         Max.-Flux-Residual
  Residual-Control   Outer-Iter.   Inner-Iter.     Column Row Layer    Maximum-Head-Change  Column Row Layer    Maximum-Flux-Residual          L2-NORM 
          0                 1           2             4    7     1       0.4455505838E-02       4    7    1         0.2341268809E+00      0.5645278915E+00
          0                 2           2             4    7     1      -0.4333996715E-03       4    7    1        -0.2341271865E-01      0.5573016645E-01
          0                 3           1             4    7     1       0.2951290706E-04       4    7    1         0.1638890715E-02      0.3925206612E-02

    ------------------------------------------------
       NWT REQUIRED            3 OUTER ITERATIONS 
       AND A TOTAL OF          5 INNER ITERATIONS.
    ------------------------------------------------

 NO OUTPUT CONTROL FOR STRESS PERIOD   25   TIME STEP   30



 STREAM LISTING     PERIOD     25   STEP       30

 LAYER ROW COL. STREAM  RCH.  FLOW INTO     FLOW TO   FLOW OUT OF   OVRLND.     DIRECT     STREAM       STREAM     STREAM     STREAM   STREAMBED  STREAMBED
                SEG.NO.  NO.  STRM. RCH.    AQUIFER    STRM. RCH.    RUNOFF     PRECIP       ET          HEAD       DEPTH      WIDTH   CONDCTNC.   GRADIENT

   1    1    1     1     1    2.0000E+01  2.2070E-01   1.9779E+01  0.000E+00  0.000E+00  0.000E+00  1.09415E+03  1.098E+00  1.197E+01  5.385E-02  1.366E+00
   1    2    2     1     2    1.9779E+01  3.4051E-01   1.9439E+01  0.000E+00  0.000E+00  0.000E+00  1.08915E+03  1.094E+00  1.188E+01  8.318E-02  1.365E+00
   1    3    3     1     3    1.9439E+01  2.8917E-01   1.9150E+01  0.000E+00  0.000E+00  0.000E+00  1.08351E+03  1.089E+00  1.179E+01  7.072E-02  1.363E+00
   1    3    4     1     4    1.9150E+01  2.6526E-01   1.8884E+01  0.000E+00  0.000E+00  0.000E+00  1.07849E+03  1.084E+00  1.170E+01  6.495E-02  1.361E+00
   1    4    5     2     1    1.6884E+01  3.0802E-01   1.6576E+01  0.000E+00  0.000E+00  0.000E+00  1.07288E+03  9.490E-01  1.200E+01  7.800E-02  1.316E+00
   1    5    6     2     2    1.6576E+01  2.3638E-01   1.6340E+01  0.000E+00  0.000E+00  0.000E+00  1.06745E+03  9.397E-01  1.200E+01  6.000E-02  1.313E+00
   1    6    6     2     3    1.6340E+01  2.3589E-01   1.6104E+01  0.000E+00  0.000E+00  0.000E+00  1.06272E+03  9.316E-01  1.200E+01  6.000E-02  1.311E+00
   1    7    6     2     4    1.6104E+01  2.3540E-01   1.5869E+01  0.000E+00  0.000E+00  0.000E+00  1.05800E+03  9.234E-01  1.200E+01  6.000E-02  1.308E+00
   1    8    6     2     5    1.5869E+01  2.3491E-01   1.5634E+01  0.000E+00  0.000E+00  0.000E+00  1.05327E+03  9.152E-01  1.200E+01  6.000E-02  1.305E+00
   1    3    5     3     1    2.0000E+00  2.8252E-01   1.7175E+00  0.000E+00  0.000E+00  0.000E+00  1.07555E+03  1.909E+00  9.636E+00  7.227E-02  1.955E+00
   1    3    6     3     2    1.7175E+00  2.4905E-01   1.4684E+00  0.000E+00  0.000E+00  0.000E+00  1.07264E+03  1.727E+00  8.909E+00  6.682E-02  1.864E+00
   1    3    7     3     3    1.4684E+00  1.9718E-01   1.2712E+00  0.000E+00  0.000E+00  0.000E+00  1.06987E+03  1.555E+00  8.218E+00  5.547E-02  1.777E+00
   1    4    8     3     4    1.2712E+00  2.2567E-01   1.0456E+00  0.000E+00  0.000E+00  0.000E+00  1.06682E+03  1.364E+00  7.455E+00  6.709E-02  1.682E+00
   1    5    8     3     5    1.0456E+00  1.5790E-01   8.8768E-01  0.000E+00  0.000E+00  0.000E+00  1.06362E+03  1.164E+00  6.655E+00  4.991E-02  1.582E+00
   1    6    8     3     6    8.8768E-01  5.5980E-02   8.3170E-01  0.000E+00  0.000E+00  0.000E+00  1.06158E+03  1.036E+00  6.145E+00  1.844E-02  1.518E+00
   1    5   10     4     1    1.0000E+01  9.0919E-02   9.9091E+00  0.000E+00  0.000E+00  0.000E+00  1.07836E+03  6.368E-01  1.000E+01  2.500E-02  1.212E+00
   1    5    9     4     2    9.9091E+00  1.8158E-01   9.7275E+00  0.000E+00  0.000E+00  0.000E+00  1.07154E+03  6.315E-01  1.000E+01  5.000E-02  1.211E+00
   1    6    8     4     3    9.7275E+00  1.2689E-01   9.6006E+00  0.000E+00  0.000E+00  0.000E+00  1.06381E+03  6.256E-01  1.000E+01  3.500E-02  1.209E+00
   1    6    8     5     1    1.0432E+01  2.2686E-01   1.0205E+01  0.000E+00  0.000E+00  0.000E+00  1.05868E+03  6.790E-01  1.542E+01  6.166E-02  1.226E+00
   1    7    7     5     2    1.0205E+01  2.7894E-01   9.9265E+00  0.000E+00  0.000E+00  0.000E+00  1.05417E+03  6.732E-01  1.519E+01  7.594E-02  1.224E+00
   1    8    7     5     3    9.9265E+00  1.9221E-01   9.7343E+00  0.000E+00  0.000E+00  0.000E+00  1.04992E+03  6.676E-01  1.497E+01  5.241E-02  1.223E+00
   1    8    6     5     4    9.7343E+00  1.3577E-01   9.5985E+00  0.000E+00  0.000E+00  0.000E+00  1.04691E+03  6.637E-01  1.482E+01  3.706E-02  1.221E+00
   1    9    6     6     1    2.5232E+01  2.5345E-01   2.4979E+01  0.000E+00  0.000E+00  0.000E+00  1.04395E+03  1.224E+00  1.200E+01  6.000E-02  1.408E+00
   1   10    7     6     2    2.4979E+01  2.5300E-01   2.4726E+01  0.000E+00  0.000E+00  0.000E+00  1.03940E+03  1.217E+00  1.200E+01  6.000E-02  1.406E+00
   1   11    7     6     3    2.4726E+01  2.5256E-01   2.4473E+01  0.000E+00  0.000E+00  0.000E+00  1.03485E+03  1.209E+00  1.200E+01  6.000E-02  1.403E+00
   1   12    7     6     4    2.4473E+01  2.5211E-01   2.4221E+01  0.000E+00  0.000E+00  0.000E+00  1.03029E+03  1.202E+00  1.200E+01  6.000E-02  1.401E+00
   1   13    7     6     5    2.4221E+01  7.3552E-04   2.4220E+01  0.000E+00  0.000E+00  0.000E+00  1.02711E+03  1.198E+00  1.200E+01  2.400E-02  1.022E-02
   1   14    9     7     1    1.5000E+02  1.3348E+00   1.4867E+02  0.000E+00  0.000E+00  0.000E+00  1.03987E+03  2.288E+00  5.529E+01  5.593E-01  7.955E-01
   1   13    8     7     2    1.4867E+02  1.8331E+00   1.4683E+02  0.000E+00  0.000E+00  0.000E+00  1.03478E+03  2.279E+00  5.526E+01  6.148E-01  9.939E-01
   1   13    7     7     3    1.4683E+02  1.4594E+00   1.4537E+02  0.000E+00  0.000E+00  0.000E+00  1.02969E+03  2.271E+00  5.522E+01  5.585E-01  8.711E-01
   1   13    6     8     1    1.6959E+02  9.1244E-01   1.6868E+02  0.000E+00  0.000E+00  0.000E+00  1.02482E+03  2.947E+00  4.273E+01  4.354E-01  6.986E-01
   1   13    5     8     2    1.6868E+02  1.6464E-01   1.6852E+02  0.000E+00  0.000E+00  0.000E+00  1.01857E+03  2.943E+00  4.267E+01  4.349E-01  1.262E-01
   1   13    4     8     3    1.6852E+02 -2.5014E+00   1.7102E+02  0.000E+00  0.000E+00  0.000E+00  1.01233E+03  2.951E+00  4.278E+01  4.360E+00 -1.912E-01
   1   13    3     8     4    1.7102E+02 -3.6752E+00   1.7469E+02  0.000E+00  0.000E+00  0.000E+00  1.00610E+03  2.971E+00  4.308E+01  4.390E+00 -2.791E-01
   1   13    2     8     5    1.7469E+02 -2.5769E+00   1.7727E+02  0.000E+00  0.000E+00  0.000E+00  9.99866E+02  2.991E+00  4.337E+01  4.419E+00 -1.944E-01
   1   13    1     8     6    1.7727E+02 -1.9728E+00   1.7924E+02  0.000E+00  0.000E+00  0.000E+00  9.94880E+02  3.005E+00  4.357E+01  2.664E+00 -2.468E-01
   1    8    6     9     1    0.0000E+00  0.0000E+00   0.0000E+00  0.000E+00  0.000E+00  0.000E+00  1.07875E+03  0.000E+00  4.000E+00  0.000E+00  1.000E+00
   1    8    5     9     2    0.0000E+00  0.0000E+00   0.0000E+00  0.000E+00  0.000E+00  0.000E+00  1.07825E+03  0.000E+00  4.000E+00  0.000E+00  1.000E+00





UNSATURATED ZONE PACKAGE VOLUMETRIC BUDGET FOR  TIME STEP    30 STRESS PERIOD   25
  ------------------------------------------------------------------------------



     CUMULATIVE VOLUMES      L**3       RATES FOR THIS TIME STEP      L**3/T
     ------------------                 ------------------------

           IN:                                      IN:
           ---                                      ---
        INFILTRATION =   345115310.8621          INFILTRATION =           0.8475

          OUT:                                     OUT:
          ----                                     ----
              UZF ET =   198231387.2392                UZF ET =           0.0325
        UZF RECHARGE =    13088121.8998          UZF RECHARGE =           0.0396

            IN - OUT =   133795801.7231              IN - OUT =           0.7754

          STORAGE:                                 STORAGE:
          --------                                 --------
      STORAGE CHANGE =   133945743.2529        STORAGE CHANGE =           0.7754

 PERCENT DISCREPANCY IS DIFFERENCE BETWEEN IN-OUT MINUS CHANGE IN STORAGE
 DIVIDED BY THE AVERAGE OF IN AND OUT TIMES 100

 PERCENT DISCREPANCY =          -0.01     PERCENT DISCREPANCY =           0.00






1
  VOLUMETRIC BUDGET FOR ENTIRE MODEL AT END OF TIME STEP   30, STRESS PERIOD  25
  ------------------------------------------------------------------------------

     CUMULATIVE VOLUMES      L**3       RATES FOR THIS TIME STEP      L**3/T
     ------------------                 ------------------------

           IN:                                      IN:
           ---                                      ---
               AWU WELLS =   168013232.0000                 AWU WELLS =           0.0000
      DIVERSION SEGMENTS =   123574016.0000        DIVERSION SEGMENTS =           0.0000
           GW IRRIGATION =           0.0000             GW IRRIGATION =           0.0000
           SW IRRIGATION =           0.0000             SW IRRIGATION =           0.0000
        SYSTEM LOSSES GW =           0.0000          SYSTEM LOSSES GW =           0.0000
        SYSTEM LOSSES SW =           0.0000          SYSTEM LOSSES SW =           0.0000

                TOTAL IN =   291587264.0000                  TOTAL IN =           0.0000

          OUT:                                     OUT:
          ----                                     ----
               AWU WELLS =           0.0000                 AWU WELLS =           0.0000
      DIVERSION SEGMENTS =           0.0000        DIVERSION SEGMENTS =           0.0000
           GW IRRIGATION =   168013232.0000             GW IRRIGATION =           0.0000
           SW IRRIGATION =   123576472.0000             SW IRRIGATION =           0.0000
        SYSTEM LOSSES GW =           0.0000          SYSTEM LOSSES GW =           0.0000
        SYSTEM LOSSES SW =           0.0000          SYSTEM LOSSES SW =           0.0000

               TOTAL OUT =   291589696.0000                 TOTAL OUT =           0.0000

                IN - OUT =       -2432.0000                  IN - OUT =           0.0000

     PERCENT DISCREPANCY =          -0.00         PERCENT DISCREPANCY =           0.00



1
  VOLUMETRIC BUDGET FOR ENTIRE MODEL AT END OF TIME STEP   30, STRESS PERIOD  25
  ------------------------------------------------------------------------------

     CUMULATIVE VOLUMES      L**3       RATES FOR THIS TIME STEP      L**3/T
     ------------------                 ------------------------

           IN:                                      IN:
           ---                                      ---
             STORAGE     =   331481792.0000               STORAGE     =           1.3769
       CONSTANT HEAD     =           0.0000         CONSTANT HEAD     =           0.0000
     HEAD DEP BOUNDS     =    18040576.0000       HEAD DEP BOUNDS     =           0.2857
      STREAM LEAKAGE     =   789869056.0000        STREAM LEAKAGE     =          11.4840
        UZF RECHARGE     =    13088112.0000          UZF RECHARGE     =       3.9560E-02
               GW ET     =           0.0000                 GW ET     =           0.0000
     SURFACE LEAKAGE     =           0.0000       SURFACE LEAKAGE     =           0.0000
           AWU WELLS     =           0.0000             AWU WELLS     =           0.0000

                TOTAL IN =  1152479616.0000                  TOTAL IN =          13.1862

          OUT:                                     OUT:
          ----                                     ----
             STORAGE     =   256238976.0000               STORAGE     =           2.1608
       CONSTANT HEAD     =           0.0000         CONSTANT HEAD     =           0.0000
     HEAD DEP BOUNDS     =    18266034.0000       HEAD DEP BOUNDS     =           0.2896
      STREAM LEAKAGE     =   599337216.0000        STREAM LEAKAGE     =          10.7263
        UZF RECHARGE     =           0.0000          UZF RECHARGE     =           0.0000
               GW ET     =   110636056.0000                 GW ET     =       9.7011E-03
     SURFACE LEAKAGE     =           0.0000       SURFACE LEAKAGE     =           0.0000
           AWU WELLS     =   168013232.0000             AWU WELLS     =           0.0000

               TOTAL OUT =  1152491520.0000                 TOTAL OUT =          13.1864

                IN - OUT =      -11904.0000                  IN - OUT =      -1.8501E-04

     PERCENT DISCREPANCY =          -0.00         PERCENT DISCREPANCY =          -0.00






         TIME SUMMARY AT END OF TIME STEP   30 IN STRESS PERIOD   25
                    SECONDS     MINUTES      HOURS       DAYS        YEARS
                    -----------------------------------------------------------
   TIME STEP LENGTH  87600.      1460.0      24.333      1.0139     2.77588E-03
 STRESS PERIOD TIME 2.62800E+06  43800.      730.00      30.417     8.32763E-02
         TOTAL TIME 6.31584E+07 1.05264E+06  17544.      731.00      2.0014    
1

 Run end date and time (yyyy/mm/dd hh:mm:ss): 2018/08/28 12:25:40
 Elapsed run time:  5.900 Seconds

