                                  MODFLOW-NWT-SWR1 
      U.S. GEOLOGICAL SURVEY MODULAR FINITE-DIFFERENCE GROUNDWATER-FLOW MODEL
                             VERSION 1.1.4 4/01/2018
                    BASED ON MODFLOW-2005 VERSION 1.12.00 02/03/2017

 LIST FILE: Agwater1.lst
                         UNIT    9

 OPENING Agwater1.ba6
 FILE TYPE:BAS6   UNIT   75   STATUS:OLD    
 FORMAT:FORMATTED              ACCESS:SEQUENTIAL          

 OPENING Agwater1.upw
 FILE TYPE:UPW   UNIT    7   STATUS:OLD    
 FORMAT:FORMATTED              ACCESS:SEQUENTIAL          

 OPENING Agwater1.dis
 FILE TYPE:DIS   UNIT    8   STATUS:OLD    
 FORMAT:FORMATTED              ACCESS:SEQUENTIAL          

 OPENING Agwater1.nwt
 FILE TYPE:NWT   UNIT   13   STATUS:OLD    
 FORMAT:FORMATTED              ACCESS:SEQUENTIAL          

 OPENING Agwater1.oc
 FILE TYPE:OC   UNIT   14   STATUS:OLD    
 FORMAT:FORMATTED              ACCESS:SEQUENTIAL          

 OPENING Agwater1.sfr
 FILE TYPE:SFR   UNIT   15   STATUS:OLD    
 FORMAT:FORMATTED              ACCESS:SEQUENTIAL          

 OPENING Agwater1.ghb
 FILE TYPE:GHB   UNIT   17   STATUS:OLD    
 FORMAT:FORMATTED              ACCESS:SEQUENTIAL          

 OPENING Agwater1.uzf
 FILE TYPE:UZF   UNIT   19   STATUS:OLD    
 FORMAT:FORMATTED              ACCESS:SEQUENTIAL          

 OPENING Agwater1.gag
 FILE TYPE:GAGE   UNIT   32   STATUS:OLD    
 FORMAT:FORMATTED              ACCESS:SEQUENTIAL          

 OPENING seg1.tab
 FILE TYPE:DATA   UNIT   55   STATUS:UNKNOWN
 FORMAT:FORMATTED              ACCESS:SEQUENTIAL          

 OPENING seg9.tab
 FILE TYPE:DATA   UNIT   56   STATUS:UNKNOWN
 FORMAT:FORMATTED              ACCESS:SEQUENTIAL          

 OPENING Agwater1.awu
 FILE TYPE:AWU   UNIT   57   STATUS:OLD    
 FORMAT:FORMATTED              ACCESS:SEQUENTIAL          

 OPENING Agwater1.hed
 FILE TYPE:DATA   UNIT   62   STATUS:UNKNOWN
 FORMAT:FORMATTED              ACCESS:SEQUENTIAL          

 OPENING Agwater1GW.ts5
 FILE TYPE:DATA   UNIT  105   STATUS:UNKNOWN
 FORMAT:FORMATTED              ACCESS:SEQUENTIAL          

 OPENING Agwater1GW_ET.ts5
 FILE TYPE:DATA   UNIT  106   STATUS:UNKNOWN
 FORMAT:FORMATTED              ACCESS:SEQUENTIAL          

 OPENING Agwater1GW_ET.all
 FILE TYPE:DATA   UNIT  107   STATUS:UNKNOWN
 FORMAT:FORMATTED              ACCESS:SEQUENTIAL          

 OPENING Agwater1GW.all
 FILE TYPE:DATA   UNIT  108   STATUS:UNKNOWN
 FORMAT:FORMATTED              ACCESS:SEQUENTIAL          

 OPENING Agwater1.uzfot
 FILE TYPE:DATA(BINARY)   UNIT   61   STATUS:UNKNOWN
 FORMAT:BINARY                 ACCESS:SEQUENTIAL          

 OPENING Agwater1cbc.unf
 FILE TYPE:DATA(BINARY)   UNIT  102   STATUS:UNKNOWN
 FORMAT:BINARY                 ACCESS:SEQUENTIAL          

 OPENING welllist.unf
 FILE TYPE:DATA(BINARY)   UNIT  103   STATUS:UNKNOWN
 FORMAT:BINARY                 ACCESS:SEQUENTIAL          

 OPENING wellirrlist.unf
 FILE TYPE:DATA(BINARY)   UNIT  104   STATUS:UNKNOWN
 FORMAT:BINARY                 ACCESS:SEQUENTIAL          

 OPENING Agwater1.uzf1
 FILE TYPE:DATA   UNIT   65   STATUS:UNKNOWN
 FORMAT:FORMATTED              ACCESS:SEQUENTIAL          

 OPENING Agwater1.uzf2
 FILE TYPE:DATA   UNIT   66   STATUS:UNKNOWN
 FORMAT:FORMATTED              ACCESS:SEQUENTIAL          

 OPENING Agwater1.uzf3
 FILE TYPE:DATA   UNIT   67   STATUS:UNKNOWN
 FORMAT:FORMATTED              ACCESS:SEQUENTIAL          

 OPENING Agwater1.uzf4
 FILE TYPE:DATA   UNIT   68   STATUS:UNKNOWN
 FORMAT:FORMATTED              ACCESS:SEQUENTIAL          

 OPENING Agwater1.flw
 FILE TYPE:DATA   UNIT   81   STATUS:UNKNOWN
 FORMAT:FORMATTED              ACCESS:SEQUENTIAL          

 OPENING Agwater1.sg1
 FILE TYPE:DATA   UNIT   83   STATUS:UNKNOWN
 FORMAT:FORMATTED              ACCESS:SEQUENTIAL          

 OPENING Agwater1.sg2
 FILE TYPE:DATA   UNIT   84   STATUS:UNKNOWN
 FORMAT:FORMATTED              ACCESS:SEQUENTIAL          

 OPENING Agwater1.sg3
 FILE TYPE:DATA   UNIT   85   STATUS:UNKNOWN
 FORMAT:FORMATTED              ACCESS:SEQUENTIAL          

 OPENING Agwater1.sg4
 FILE TYPE:DATA   UNIT   86   STATUS:UNKNOWN
 FORMAT:FORMATTED              ACCESS:SEQUENTIAL          

 OPENING Agwater1.sg5
 FILE TYPE:DATA   UNIT   87   STATUS:UNKNOWN
 FORMAT:FORMATTED              ACCESS:SEQUENTIAL          

 OPENING Agwater1.sg6
 FILE TYPE:DATA   UNIT   88   STATUS:UNKNOWN
 FORMAT:FORMATTED              ACCESS:SEQUENTIAL          

 OPENING Agwater1.sg7
 FILE TYPE:DATA   UNIT   89   STATUS:UNKNOWN
 FORMAT:FORMATTED              ACCESS:SEQUENTIAL          

 OPENING Agwater1.sg8
 FILE TYPE:DATA   UNIT   90   STATUS:UNKNOWN
 FORMAT:FORMATTED              ACCESS:SEQUENTIAL          

 OPENING Agwater1.sg9
 FILE TYPE:DATA   UNIT   91   STATUS:UNKNOWN
 FORMAT:FORMATTED              ACCESS:SEQUENTIAL          

 BAS -- BASIC PACKAGE, VERSION 1.1.4, 4/01/2018 INPUT READ FROM UNIT   75
 
 MODFLOW was compiled using mixed precision
 Precision of REAL variables:           6
 Precision of DOUBLE PRECISION variables:          15

 DISCRETIZATION INPUT DATA READ FROM UNIT    8
 #Test problem 2-- Discretization input
 #Example problem using the UZF1 Package
    1 LAYERS        15 ROWS        10 COLUMNS
   25 STRESS PERIOD(S) IN SIMULATION
 MODEL TIME UNIT IS SECONDS
 MODEL LENGTH UNIT IS FEET
  Confining bed flag for each layer:
   0

                     DELR =   5000.00    

                     DELC =   5000.00    



           TOP ELEVATION OF LAYER 1
 READING ON UNIT    8 WITH FORMAT: (10F7.0)            

            1           2           3           4           5           6           7           8           9          10
 ........................................................................................................................
   1    1105.       1105.       0.000       0.000       0.000       0.000       0.000       0.000       0.000       0.000    
   2    1105.       1095.       1105.       0.000       0.000       1100.       1100.       1110.       0.000       0.000    
   3    0.000       1100.       1085.       1080.       1078.       1076.       1073.       1090.       0.000       0.000    
   4    1110.       1100.       1090.       1085.       1076.       1080.       1080.       1070.       1100.       0.000    
   5    1110.       1100.       1085.       1080.       1078.       1074.       1077.       1066.       1075.       1080.    
   6    1105.       1095.       1080.       1077.       1073.       1069.       1070.       1063.       1085.       1095.    
   7    1105.       1090.       1075.       1072.       1070.       1065.       1065.       1069.       1090.       0.000    
   8    0.000       1080.       1070.       1068.       1063.       1060.       1063.       1067.       1090.       0.000    
   9    0.000       1075.       1065.       1062.       1058.       1052.       1055.       1065.       1090.       0.000    
  10    0.000       1070.       1060.       1055.       1046.       1046.       1044.       1060.       1088.       1100.    
  11    0.000       1055.       1050.       1045.       1041.       1042.       1040.       1050.       1075.       0.000    
  12    1027.       1028.       1028.       1032.       1032.       1033.       1032.       1040.       1060.       0.000    
  13    997.0       1004.       1008.       1014.       1020.       1027.       1032.       1038.       1050.       0.000    
  14    0.000       1030.       1040.       1045.       1050.       1050.       1050.       1050.       1044.       0.000    
  15    0.000       0.000       1080.       1080.       1080.       1080.       0.000       0.000       0.000       0.000    



             MODEL LAYER BOTTOM EL. FOR LAYER   1
 READING ON UNIT    8 WITH FORMAT: (10F7.0)            

            1           2           3           4           5           6           7           8           9          10
 ........................................................................................................................
   1    1000.       1000.       0.000       0.000       0.000       0.000       0.000       0.000       0.000       0.000    
   2    1000.       900.0       900.0       0.000       0.000       950.0       950.0       950.0       0.000       0.000    
   3    0.000       850.0       670.0       680.0       680.0       770.0       770.0       890.0       0.000       0.000    
   4    925.0       850.0       650.0       650.0       650.0       680.0       740.0       850.0       950.0       0.000    
   5    925.0       800.0       650.0       600.0       600.0       600.0       650.0       720.0       850.0       950.0    
   6    925.0       800.0       650.0       600.0       550.0       600.0       650.0       720.0       850.0       970.0    
   7    925.0       800.0       650.0       600.0       550.0       600.0       650.0       720.0       950.0       0.000    
   8    0.000       850.0       700.0       650.0       570.0       600.0       700.0       850.0       950.0       0.000    
   9    0.000       850.0       700.0       650.0       540.0       580.0       700.0       850.0       950.0       0.000    
  10    0.000       850.0       700.0       630.0       530.0       580.0       650.0       800.0       900.0       950.0    
  11    0.000       850.0       700.0       620.0       580.0       620.0       700.0       800.0       900.0       0.000    
  12    900.0       830.0       710.0       640.0       600.0       650.0       700.0       800.0       900.0       0.000    
  13    900.0       810.0       750.0       700.0       650.0       700.0       750.0       800.0       900.0       0.000    
  14    0.000       950.0       850.0       850.0       850.0       850.0       850.0       850.0       850.0       0.000    
  15    0.000       0.000       950.0       950.0       950.0       950.0       0.000       0.000       0.000       0.000    


 STRESS PERIOD     LENGTH       TIME STEPS     MULTIPLIER FOR DELT    SS FLAG
 ----------------------------------------------------------------------------
        1         86400.00          1                    1.000         SS
        2         2628000.         30                    1.000         TR
        3         2628000.         30                    1.000         TR
        4         2628000.         30                    1.000         TR
        5         2628000.         30                    1.000         TR
        6         2628000.         30                    1.000         TR
        7         2628000.         30                    1.000         TR
        8         2628000.         30                    1.000         TR
        9         2628000.         30                    1.000         TR
       10         2628000.         30                    1.000         TR
       11         2628000.         30                    1.000         TR
       12         2628000.         30                    1.000         TR
       13         2628000.         30                    1.000         TR
       14         2628000.         30                    1.000         TR
       15         2628000.         30                    1.000         TR
       16         2628000.         30                    1.000         TR
       17         2628000.         30                    1.000         TR
       18         2628000.         30                    1.000         TR
       19         2628000.         30                    1.000         TR
       20         2628000.         30                    1.000         TR
       21         2628000.         30                    1.000         TR
       22         2628000.         30                    1.000         TR
       23         2628000.         30                    1.000         TR
       24         2628000.         30                    1.000         TR
       25         2628000.         30                    1.000         TR

 COMBINED STEADY-STATE AND TRANSIENT SIMULATION



 
 #Test Simulation 2-- Example problem using the UZF1 Package                     
 #Modified from example Problem 1 of SFR1 documentation report                   
 THE FREE FORMAT OPTION HAS BEEN SELECTED



                     BOUNDARY ARRAY FOR LAYER   1
 READING ON UNIT   75 WITH FORMAT: (20I4)              

                1           2           3           4           5           6           7           8           9          10
 ............................................................................................................................
   1            1           1           0           0           0           0           0           0           0           0
   2            1           1           1           0           0           1           1           1           0           0
   3            0           1           1           1           1           1           1           1           0           0
   4            1           1           1           1           1           1           1           1           1           0
   5            1           1           1           1           1           1           1           1           1           1
   6            1           1           1           1           1           1           1           1           1           1
   7            1           1           1           1           1           1           1           1           1           0
   8            0           1           1           1           1           1           1           1           1           0
   9            0           1           1           1           1           1           1           1           1           0
  10            0           1           1           1           1           1           1           1           1           1
  11            0           1           1           1           1           1           1           1           1           0
  12            1           1           1           1           1           1           1           1           1           0
  13            1           1           1           1           1           1           1           1           1           0
  14            0           1           1           1           1           1           1           1           1           0
  15            0           0           1           1           1           1           0           0           0           0

 AQUIFER HEAD WILL BE SET TO   6999.0     AT ALL NO-FLOW NODES (IBOUND=0).



                       INITIAL HEAD FOR LAYER   1
 READING ON UNIT   75 WITH FORMAT: (10F8.0)            

            1           2           3           4           5           6           7           8           9          10
 ........................................................................................................................
   1    1093.       1089.       6999.       6999.       6999.       6999.       6999.       6999.       6999.       6999.    
   2    1090.       1087.       1081.       6999.       6999.       1072.       1071.       1071.       6999.       6999.    
   3    6999.       1079.       1078.       1074.       1072.       1071.       1069.       1068.       6999.       6999.    
   4    1069.       1071.       1070.       1067.       1065.       1064.       1064.       1066.       1066.       6999.    
   5    1065.       1064.       1063.       1062.       1061.       1061.       1060.       1062.       1066.       1068.    
   6    1060.       1058.       1057.       1056.       1056.       1057.       1057.       1059.       1062.       1066.    
   7    1056.       1053.       1052.       1051.       1051.       1052.       1053.       1055.       1056.       6999.    
   8    6999.       1046.       1046.       1046.       1046.       1046.       1048.       1050.       1050.       6999.    
   9    6999.       1039.       1039.       1039.       1040.       1041.       1042.       1043.       1044.       6999.    
  10    6999.       1031.       1032.       1033.       1034.       1035.       1037.       1038.       1039.       1042.    
  11    6999.       1021.       1023.       1027.       1029.       1030.       1032.       1034.       1036.       6999.    
  12    1001.       1009.       1015.       1020.       1023.       1026.       1029.       1030.       1034.       6999.    
  13    994.5      1000.0       1007.       1013.       1019.       1024.       1029.       1034.       1036.       6999.    
  14    6999.       1004.       1009.       1014.       1019.       1024.       1029.       1035.       1039.       6999.    
  15    6999.       6999.       1012.       1015.       1019.       1022.       6999.       6999.       6999.       6999.    

 OUTPUT CONTROL IS SPECIFIED ONLY AT TIME STEPS FOR WHICH OUTPUT IS DESIRED
 HEADS WILL BE SAVED WITH FORMAT: (10F10.3)           
 SAVED HEADS WILL BE LABELED
 COMPACT CELL-BY-CELL BUDGET FILES WILL BE WRITTEN
 HEAD PRINT FORMAT CODE IS   4    DRAWDOWN PRINT FORMAT CODE IS   0
 HEADS WILL BE SAVED ON UNIT   62    DRAWDOWNS WILL BE SAVED ON UNIT    0
 # NWT Input File
 # Test Problem 3 for MODFLOW-NWT
 #HEADTOL  FLUXTOL MAXITEROUT THICKFACT LINMETH IPRNWT IBOTAV OPTIONS DBDREDUCE DBDINCREASE DBDGAMMA MOMFACT BACKFLAG MAXBACKITER BACKTOL BACKREDUCE

 NWT1 -- Newton Solver, VERSION 1.1.4, 4/01/2018
         INPUT READ FROM UNIT 13

 SPECIFIED OPTION:
 SOLVER INPUT VALUES ARE SPECIFIED BY USER
 ***XMD linear solver will be used***
 
   CONVERGENCE CRITERION OF   0.100000E-03 FOR HEAD SOLUTION
   AND A TOLERANCE OF   0.100000E+03 FOR FLOW SOLUTION AND 
   A MAXIMUM OF   500 OUTER ITERATIONS. 


   D-B-D REDUCTION FACTOR OF    0.970000E+00 AND 
   A D-B-D INCREASE FACTOR OF    0.100000E-04 AND 
   A D-B-D RELAXATION OF    0.000000E+00 AND 
   A MOMENTUM FACTOR OF    0.100000E+00 .


 ***BACKTRACKING IS INACTIVE***
 XMD -- LINEAR SOLUTION BY XMD PACKAGE VERSION 1.30
     BY MOTOMU IBARAKI, OHIO STATE UNIVERSITY, COLOMBUS, OH
                 INPUT READ FROM UNIT 13
 ACCELERATION METHOD                    (IACL) =         1
 NODE ORDERING FLAG                   (NORDER) =         0
 LEVEL OF FILL                         (LEVEL) =         7
 MAXIMUM NUMBER OF ORTHOGONALIZATIONS  (NORTH) =         7
 INDEX FOR USING REDUCED SYSTEM      (IREDSYS) =         1
 RESID. REDUCTION CONVERGE CRITERION  (RRCTOL) =  0.000000E+00
 INDEX FOR USING DROP TOLERANCE     (IDROPTOL) =         1
 DROP TOLERANCE VALUE                  (EPSRN) =  0.500000E-02
 CONVERGENCE CRITERIA OF           (HCLOSEXMD) =  0.100000E-03
 MAX. NUMBER OF LINEAR ITERATIONS  (MXITERXMD) =        50


 UPW1 -- UPSTREAM WEIGHTING FLOW PACKAGE, VERSION 1.1.4, 4/01/2018
         INPUT READ FROM UNIT  7

 #Layer-Property Flow Package input for test simulation 2
 CELL-BY-CELL FLOWS WILL BE SAVED ON UNIT  102
 No named parameters

   LAYER FLAGS:
 LAYER       LAYTYP          LAYAVG    CHANI           LAYVKA           LAYWET
 ---------------------------------------------------------------------------
    1             1             0     1.000E+00             0             0

   INTERPRETATION OF LAYER FLAGS:
                        INTERBLOCK     HORIZONTAL    DATA IN
         LAYER TYPE   TRANSMISSIVITY   ANISOTROPY   ARRAY VKA   WETTABILITY
 LAYER   (LAYTYP)        (LAYAVG)      (CHANI)     (LAYVKA)       (LAYWET)
 ---------------------------------------------------------------------------
    1   CONVERTIBLE      HARMONIC     1.000E+00    VERTICAL K  NON-WETTABLE



              HYD. COND. ALONG ROWS FOR LAYER   1
 READING ON UNIT    7 WITH FORMAT: (10F5.0)            

            1           2           3           4           5           6           7           8           9          10
 ........................................................................................................................
   1   2.0000E-03  2.0000E-03   0.000       0.000       0.000       0.000       0.000       0.000       0.000       0.000    
   2   4.0000E-04  2.0000E-03  2.0000E-03   0.000       0.000      4.0000E-04  4.0000E-04  4.0000E-04   0.000       0.000    
   3    0.000      4.0000E-04  2.0000E-03  2.0000E-03  4.0000E-04  4.0000E-04  4.0000E-04  4.0000E-04   0.000       0.000    
   4   4.0000E-04  4.0000E-04  4.0000E-04  2.0000E-03  2.0000E-03  2.0000E-03  4.0000E-04  4.0000E-04  4.0000E-04   0.000    
   5   4.0000E-04  4.0000E-04  4.0000E-04  2.0000E-03  2.0000E-03  2.0000E-03  2.0000E-03  2.0000E-03  2.0000E-03  2.0000E-03
   6   4.0000E-04  4.0000E-04  4.0000E-04  2.0000E-03  2.0000E-03  2.0000E-03  2.0000E-03  2.0000E-03  4.0000E-04  4.0000E-04
   7   4.0000E-04  4.0000E-04  4.0000E-04  2.0000E-03  2.0000E-03  2.0000E-03  2.0000E-03  2.0000E-03  4.0000E-04   0.000    
   8    0.000      4.0000E-04  4.0000E-04  2.0000E-03  2.0000E-03  2.0000E-03  2.0000E-03  4.0000E-04  4.0000E-04   0.000    
   9    0.000      4.0000E-04  4.0000E-04  2.0000E-03  2.0000E-03  2.0000E-03  2.0000E-03  4.0000E-04  4.0000E-04   0.000    
  10    0.000      4.0000E-04  4.0000E-04  2.0000E-03  2.0000E-03  2.0000E-03  2.0000E-03  4.0000E-04  4.0000E-04  4.0000E-04
  11    0.000      4.0000E-04  4.0000E-04  2.0000E-03  2.0000E-03  2.0000E-03  2.0000E-03  4.0000E-04  4.0000E-04   0.000    
  12   4.0000E-04  4.0000E-04  2.0000E-03  2.0000E-03  2.0000E-03  2.0000E-03  2.0000E-03  4.0000E-04  4.0000E-04   0.000    
  13   2.0000E-03  2.0000E-03  2.0000E-03  2.0000E-03  2.0000E-03  2.0000E-03  2.0000E-03  2.0000E-03  2.0000E-03   0.000    
  14    0.000      4.0000E-04  4.0000E-04  4.0000E-04  4.0000E-04  4.0000E-04  4.0000E-04  4.0000E-04  2.0000E-03   0.000    
  15    0.000       0.000      4.0000E-04  4.0000E-04  4.0000E-04  4.0000E-04   0.000       0.000       0.000       0.000    

      VERTICAL HYD. COND. =  1.000000E-06 FOR LAYER   1

         SPECIFIC STORAGE =  1.000000E-06 FOR LAYER   1



                     SPECIFIC YIELD FOR LAYER   1
 READING ON UNIT    7 WITH FORMAT: (10F5.0)            

            1           2           3           4           5           6           7           8           9          10
 ........................................................................................................................
   1   0.2000      0.2000       0.000       0.000       0.000       0.000       0.000       0.000       0.000       0.000    
   2   0.1000      0.2000      0.2000       0.000       0.000      0.1000      0.1000      0.1000       0.000       0.000    
   3    0.000      0.1000      0.2000      0.2000      0.1000      0.1000      0.1000      0.1000       0.000       0.000    
   4   0.1000      0.1000      0.1000      0.2000      0.2000      0.2000      0.1000      0.1000      0.1000       0.000    
   5   0.1000      0.1000      0.1000      0.2000      0.2000      0.2000      0.2000      0.2000      0.2000      0.2000    
   6   0.1000      0.1000      0.1000      0.2000      0.2000      0.2000      0.2000      0.2000      0.1000      0.1000    
   7   0.1000      0.1000      0.1000      0.2000      0.2000      0.2000      0.2000      0.2000      0.1000       0.000    
   8    0.000      0.1000      0.1000      0.2000      0.2000      0.2000      0.2000      0.1000      0.1000       0.000    
   9    0.000      0.1000      0.1000      0.2000      0.2000      0.2000      0.2000      0.1000      0.1000       0.000    
  10    0.000      0.1000      0.1000      0.2000      0.2000      0.2000      0.2000      0.1000      0.1000      0.1000    
  11    0.000      0.1000      0.1000      0.2000      0.2000      0.2000      0.2000      0.1000      0.1000       0.000    
  12   0.1000      0.1000      0.2000      0.2000      0.2000      0.2000      0.2000      0.1000      0.1000       0.000    
  13   0.2000      0.2000      0.2000      0.2000      0.2000      0.2000      0.2000      0.2000      0.2000       0.000    
  14    0.000      0.1000      0.1000      0.1000      0.1000      0.1000      0.1000      0.1000      0.2000       0.000    
  15    0.000       0.000      0.1000      0.1000      0.1000      0.1000       0.000       0.000       0.000       0.000    

 GHB -- GENERAL-HEAD BOUNDARY PACKAGE, VERSION 7, 5/2/2005
         INPUT READ FROM UNIT   17
 No named parameters
 MAXIMUM OF      2 ACTIVE GHB CELLS AT ONE TIME
 CELL-BY-CELL FLOWS WILL BE PRINTED WHEN ICBCFL NOT 0


     0 GHB parameters

 SFR7 -- STREAMFLOW ROUTING PACKAGE, VERSION 1.0.5, 2012-04-05
         INPUT READ FROM UNIT  15
 #SFR2 Package input for Testing supplimental pumping and irrigation
 No named parameters

 PROCESSING SFR2 OPTIONS
 
          1 Specified inflow files will be read with a maximum of        759 row entries per file
 
Stream loss will be calculated as a factor of the streambed hydraulic conductivity. Multiplication factor is equal to     0.1000000015E+00

 END PROCESSING SFR2 OPTIONS
 


 NUMBER OF STREAM REACHES IS   36

 NUMBER OF STREAM SEGMENTS IS    8

 NUMBER OF STREAM PARAMETERS IS    0

 NUMBER OF STREAM SEGMENTS DEFINED USING PARAMETERS IS              0

 MAXIMUM ERROR FOR STREAM LEAKAGE RATES IS  1.00E-06

 CONSTANT FOR MANNINGS EQUATION IS  1.4860E+00



 STREAM OUTPUT WILL BE WRITTEN TO FILE ON UNIT   81


   STREAM NETWORK DESCRIPTION: 

   LAYER    ROW    COL   SEGMENT   REACH     LENGTH
                          NUMBER   NUMBER    IN CELL        
   --------------------------------------------------
      1      1      1       1        1    4.5000E+03
      1      2      2       1        2    7.0000E+03
      1      3      3       1        3    6.0000E+03
      1      3      4       1        4    5.5500E+03
      1      4      5       2        1    6.5000E+03
      1      5      6       2        2    5.0000E+03
      1      6      6       2        3    5.0000E+03
      1      7      6       2        4    5.0000E+03
      1      8      6       2        5    5.0000E+03
      1      3      5       3        1    5.0000E+03
      1      3      6       3        2    5.0000E+03
      1      3      7       3        3    4.5000E+03
      1      4      8       3        4    6.0000E+03
      1      5      8       3        5    5.0000E+03
      1      6      8       3        6    2.0000E+03
      1      5     10       4        1    2.5000E+03
      1      5      9       4        2    5.0000E+03
      1      6      8       4        3    3.5000E+03
      1      6      8       5        1    4.0000E+03
      1      7      7       5        2    5.0000E+03
      1      8      7       5        3    3.5000E+03
      1      8      6       5        4    2.5000E+03
      1      9      6       6        1    5.0000E+03
      1     10      7       6        2    5.0000E+03
      1     11      7       6        3    5.0000E+03
      1     12      7       6        4    5.0000E+03
      1     13      7       6        5    2.0000E+03
      1     14      9       7        1    5.0000E+03
      1     13      8       7        2    5.5000E+03
      1     13      7       7        3    5.0000E+03
      1     13      6       8        1    5.0000E+03
      1     13      5       8        2    5.0000E+03
      1     13      4       8        3    5.0000E+03
      1     13      3       8        4    5.0000E+03
      1     13      2       8        5    5.0000E+03
      1     13      1       8        6    3.0000E+03




 UZF1 -- UNSATURATED FLOW PACKAGE, VERSION 1.4, 02/06/2012
         INPUT READ FROM UNIT 19
 #UZF Package input for test simulation 2
 No named parameters

 PROCESSING UZF OPTIONS
 
 
 INITIAL WATER CONTENT (THTI) WILL BE 
READ FOR THE FIRST SS OR TR STRESS PERIOD
 
 
 RESIDUAL WATER CONTENT (THTR) WILL BE 
READ AND USED FOR THE FIRST TRANSIENT STRESS 
PERIOD
 
 #etsquare    0.1
 
INFILTRATION WILL BE REJECTED USING 
LAND SURFACE K
 
 
HYDRAULIC CONDUCTIVITY OF LAND SURFACE 
WILL BE READ
 

 END PROCESSING UZF OPTIONS



            AREAL EXTENT OF UZ FLOW
 READING ON UNIT   19 WITH FORMAT: (20I4)              

                1           2           3           4           5           6           7           8           9          10
 ............................................................................................................................
   1            1           1           0           0           0           0           0           0           0           0
   2            1           1           1           0           0           1           1           1           0           0
   3            0           1           1           1           1           1           1           1           0           0
   4            1           1           1           1           1           1           1           1           1           0
   5            1           1           1           1           1           1           1           1           1           1
   6            1           1           1           1           1           1           1           1           1           1
   7            1           1           1           1           1           1           1           1           1           0
   8            0           1           1           1           1           1           1           1           1           0
   9            0           1           1           1           1           1           1           1           1           0
  10            0           1           1           1           1           1           1           1           1           1
  11            0           1           1           1           1           1           1           1           1           0
  12            1           1           1           1           1           1           1           1           1           0
  13            1           1           1           1           1           1           1           1           1           0
  14            0           1           1           1           1           1           1           1           1           0
  15            0           0           1           1           1           1           0           0           0           0
 OPTION 1 -- RECHARGE IN UZF TO TOP LAYER ONLY 



            ROUTING OVERLAND RUNOFF
 READING ON UNIT   19 WITH FORMAT: (20I4)              

                1           2           3           4           5           6           7           8           9          10
 ............................................................................................................................
   1            1           1           0           0           0           0           0           0           0           0
   2            1           1           1           0           0           3           3           3           0           0
   3            0           1           1           1           3           3           3           3           0           0
   4            8           8           2           2           2           2           2           3           3           0
   5            8           8           8           8           2           2           2           3           4           4
   6            8           8           8           8           8           2           2           4           4           4
   7            8           8           8           8           8           2           5           5           5           0
   8            0           8           8           8           8           2           5           5           5           0
   9            0           8           8           8           8           6           6           6           6           0
  10            0           8           8           8           8           6           6           6           6           6
  11            0           8           8           8           8           8           6           6           7           0
  12            8           8           8           8           8           8           6           7           7           0
  13            8           8           8           8           8           8           7           7           7           0
  14            0           8           8           8           8           8           7           7           7           0
  15            0           0           8           8           8           8           0           0           0           0



               SATURATED VERTICAL K
 READING ON UNIT   19 WITH FORMAT: (10F4.0)            

            1           2           3           4           5           6           7           8           9          10
 ........................................................................................................................
   1   1.0000E-05  1.0000E-05   0.000       0.000       0.000       0.000       0.000       0.000       0.000       0.000    
   2   1.0000E-05  1.0000E-05  1.0000E-05   0.000       0.000      1.0000E-05  1.0000E-05  1.0000E-05   0.000       0.000    
   3    0.000      1.0000E-05  1.0000E-05  1.0000E-05  1.0000E-05  1.0000E-05  1.0000E-05  1.0000E-05   0.000       0.000    
   4   1.0000E-05  1.0000E-05  1.0000E-05  1.0000E-05  1.0000E-05  1.0000E-05  1.0000E-05  1.0000E-05  1.0000E-05   0.000    
   5   1.0000E-05  1.0000E-05  1.0000E-05  1.0000E-05  1.0000E-05  1.0000E-05  1.0000E-05  1.0000E-05  1.0000E-05  1.0000E-05
   6   1.0000E-05  1.0000E-05  1.0000E-05  1.0000E-05  1.0000E-05  1.0000E-05  1.0000E-05  1.0000E-05  1.0000E-05  1.0000E-05
   7   1.0000E-05  1.0000E-05  1.0000E-05  1.0000E-05  1.0000E-05  1.0000E-05  1.0000E-05  1.0000E-05  1.0000E-05   0.000    
   8    0.000      1.0000E-05  1.0000E-05  1.0000E-05  1.0000E-05  1.0000E-05  1.0000E-05  1.0000E-05  1.0000E-05   0.000    
   9    0.000      1.0000E-05  1.0000E-05  1.0000E-05  1.0000E-05  1.0000E-05  1.0000E-05  1.0000E-05  1.0000E-05   0.000    
  10    0.000      1.0000E-05  1.0000E-05  1.0000E-05  1.0000E-05  1.0000E-05  1.0000E-05  1.0000E-05  1.0000E-05  1.0000E-05
  11    0.000      1.0000E-05  1.0000E-05  1.0000E-05  1.0000E-05  1.0000E-05  1.0000E-05  1.0000E-05  1.0000E-05   0.000    
  12   1.0000E-05  1.0000E-05  1.0000E-05  1.0000E-05  1.0000E-05  1.0000E-05  1.0000E-05  1.0000E-05  1.0000E-05   0.000    
  13   1.0000E-05  1.0000E-05  1.0000E-05  1.0000E-05  1.0000E-05  1.0000E-05  1.0000E-05  1.0000E-05  1.0000E-05   0.000    
  14    0.000      1.0000E-05  1.0000E-05  1.0000E-05  1.0000E-05  1.0000E-05  1.0000E-05  1.0000E-05  1.0000E-05   0.000    
  15    0.000       0.000      1.0000E-05  1.0000E-05  1.0000E-05  1.0000E-05   0.000       0.000       0.000       0.000    



            LAND SURFACE VERTICAL K
 READING ON UNIT   19 WITH FORMAT: (10F4.0)            

            1           2           3           4           5           6           7           8           9          10
 ........................................................................................................................
   1   1.0000E-05  1.0000E-05   0.000       0.000       0.000       0.000       0.000       0.000       0.000       0.000    
   2   1.0000E-05  1.0000E-05  1.0000E-05   0.000       0.000      1.0000E-05  1.0000E-05  1.0000E-05   0.000       0.000    
   3    0.000      1.0000E-05  1.0000E-05  1.0000E-05  1.0000E-05  1.0000E-05  1.0000E-05  1.0000E-05   0.000       0.000    
   4   1.0000E-05  1.0000E-05  1.0000E-05  1.0000E-05  1.0000E-05  1.0000E-05  1.0000E-05  1.0000E-05  1.0000E-05   0.000    
   5   1.0000E-05  1.0000E-05  1.0000E-05  1.0000E-05  1.0000E-05  1.0000E-05  1.0000E-05  1.0000E-05  1.0000E-05  1.0000E-05
   6   1.0000E-05  1.0000E-05  1.0000E-05  1.0000E-05  1.0000E-05  1.0000E-05  1.0000E-05  1.0000E-05  1.0000E-05  1.0000E-05
   7   1.0000E-05  1.0000E-05  1.0000E-05  1.0000E-05  1.0000E-05  1.0000E-05  1.0000E-05  1.0000E-05  1.0000E-05   0.000    
   8    0.000      1.0000E-05  1.0000E-05  1.0000E-05  1.0000E-05  1.0000E-05  1.0000E-05  1.0000E-05  1.0000E-05   0.000    
   9    0.000      1.0000E-05  1.0000E-05  1.0000E-05  1.0000E-05  1.0000E-05  1.0000E-05  1.0000E-05  1.0000E-05   0.000    
  10    0.000      1.0000E-05  1.0000E-05  1.0000E-05  1.0000E-05  1.0000E-05  1.0000E-05  1.0000E-05  1.0000E-05  1.0000E-05
  11    0.000      1.0000E-05  1.0000E-05  1.0000E-05  1.0000E-05  1.0000E-05  1.0000E-05  1.0000E-05  1.0000E-05   0.000    
  12   1.0000E-05  1.0000E-05  1.0000E-05  1.0000E-05  1.0000E-05  1.0000E-05  1.0000E-05  1.0000E-05  1.0000E-05   0.000    
  13   1.0000E-05  1.0000E-05  1.0000E-05  1.0000E-05  1.0000E-05  1.0000E-05  1.0000E-05  1.0000E-05  1.0000E-05   0.000    
  14    0.000      1.0000E-05  1.0000E-05  1.0000E-05  1.0000E-05  1.0000E-05  1.0000E-05  1.0000E-05  1.0000E-05   0.000    
  15    0.000       0.000      1.0000E-05  1.0000E-05  1.0000E-05  1.0000E-05   0.000       0.000       0.000       0.000    

     BROOKS-COREY EPSILON =   5.50000    

  SATURATED WATER CONTENT =  0.220000    

   RESIDUAL WATER CONTENT =  5.000000E-02

    INITIAL WATER CONTENT =  7.000000E-02

UNSATURATED FLOW RESULTS WILL BE PRINTED TO SEPARATE FILES FOR SELECTED MODEL CELLS, AND TIME STEPS AS DEFINED BY OUTPUT CONTROL PACKAGE 

SELECTED MODEL CELLS ARE: 
 ROW NUMBER  COLUMN NUMBER  FORTRAN UNIT NUMBER  OUTPUT OPTION


       6             4                 65                 1
       6             5                 66                 2
       8             4                 67                 3
       0             0                 68                 4



   8 GAGING STATIONS WERE SPECIFIED.
     (Lakes are identified by a negative value of the Lake Number)
     RECORDS WILL BE WRITTEN TO SEPARATE OUTPUT FILES REPRESENTED BY FOLLOWING UNIT NUMBERS:

 Stream Gages:
  GAGE #   SEGMENT   REACH   UNIT   OUTTYPE
       1       1       4      83       1
       2       2       3      84       1
       3       3       5      85       1
       4       4       3      86       1
       5       5       4      87       4
       6       6       5      88       4
       7       7       3      89       4
       8       8       6      90       4





 AWU -- AWU PACKAGE FOR NWT VERSION 1.1.3,  8/01/2017 INPUT READ FROM UNIT   57
 # AWU options

 PROCESSING AWU OPTIONS
 
 AGRICULTURAL DEMANDS WILL BE CALCULATED USING ET DEFICIT
  IRRIGATION RATE ADJUSTMENT FACTOR WAS SET EQUAL TO.  1000.000
 
 
 OPTION TO APPLY PUMPED WATER AS IRRIGATION IS ACTIVE. PUMPED IRRIGATION WATER WILL BE APPLIED TO          6 CELLS/RHUS.
 
 
 THE MAXIMUM NUMBER OF WELLS FOR SUPPLEMENTING DIVERSIONS OR APPLYING IRRIGATION IS          6 WELLS.
 
 
  UNFORMATTED CELL BY CELL RATES FOR SUP AND IRR WELLS WILL BE SAVED TO FILE UNIT NUMBER         -2
 
 
  UNFORMATTED CELL BY CELL RATES FOR SUP AND IRR WELLS WILL BE SAVED TO FILE UNIT NUMBER         -2
 
 
  GROUND WATER IRRIGATION, POTENTIAL AND ACTUAL ET WILL BE SAVED TO TIMES SERIES OUTPUT FILES.
 
 
  GROUND WATER IRRIGATION, POTENTIAL AND ACTUAL ET WILL BE SAVED TO TIMES SERIES OUTPUT FILES.
 

 END PROCESSING AWU OPTIONS
 # AWU time series

 PROCESSING TIME SERIES

 FINISHED READING TIME SERIES
 A total number of          0 AWU output time series files were activated for SURFACE WATER 
 A total number of          2 AWU output time series files were activated for GROUNDWATER 
 A total number of          0 AWU output time series files were activated for SURFACE WATER ET
 A total number of          2 AWU output time series files were activated for GROUNDWATER ET
1
                            STRESS PERIOD NO.    1, LENGTH =   86400.00    
                            -----------------------------------------------

                              NUMBER OF TIME STEPS =     1

                               MULTIPLIER FOR DELT =     1.000

                            INITIAL TIME STEP SIZE =   86400.00    

 BOUND. NO. LAYER   ROW   COL     STAGE      CONDUCTANCE         
 ----------------------------------------------------------------
      1      1     13      1       988.0          0.3800E-01
      2      1     14      9       1045.          0.3800E-01

      2 GHB CELLS



 CLASSIFICATION & COUNT OF STREAM SEGMENTS BASED ON SOURCE OF INFLOW:

                HEADWATER     DIVERSION     RECEIVES TRIBUTARY FLOW
                ---------     ---------     -----------------------
                     3              1               4



                    INPUT DATA FOR EACH STREAM SEGMENT
 ---------------------------------------------------------------------------------------------

 SEGMENT    SEG.     INFLOW   OVERLAND   STREAM    STREAM   ICALC  OUTFLOW  DIVERSION PRIORITY
    NO.    LENGTH     RATE     RUNOFF      ET       PPT.    METH.  TO SEG.  FROM SEG.    NO.

      1  2.305E+04 2.500E+01 0.000E+00 0.000E+00 0.000E+00    4        2        0        0
      2  2.650E+04 0.000E+00 0.000E+00 0.000E+00 0.000E+00    1        6        0        0
      3  2.750E+04 2.000E+00 0.000E+00 0.000E+00 0.000E+00    0        5        1        0
      4  1.100E+04 1.000E+01 0.000E+00 0.000E+00 0.000E+00    1        5        0        0
      5  1.500E+04 0.000E+00 0.000E+00 0.000E+00 0.000E+00    3        6        0        0
      6  2.200E+04 0.000E+00 0.000E+00 0.000E+00 0.000E+00    1        8        0        0
      7  1.550E+04 1.500E+02 0.000E+00 0.000E+00 0.000E+00    2        8        0        0
      8  2.800E+04 0.000E+00 0.000E+00 0.000E+00 0.000E+00    2        0        0        0


         STREAMBED PROPERTIES AND STREAM DIMENSIONS

 SEGMENT     BED HYD. COND.      BED THICKNESS     ELEV.-TOP OF BED     WIDTH OF STREAM     DEPTH OF STREAM    STREAM ROUGHNESS
    No.     UPPER     LOWER     UPPER     LOWER     UPPER     LOWER     UPPER     LOWER     UPPER     LOWER   CHANNEL      BANK

     1  3.000E-05 3.000E-05 3.000E+00 3.000E+00 1.095E+03 1.075E+03
     2  3.000E-05 3.000E-05 3.000E+00 3.000E+00 1.075E+03 1.050E+03 1.200E+01 1.200E+01                     3.000E-02
     3  3.000E-05 3.000E-05 2.000E+00 2.000E+00 1.075E+03 1.060E+03 1.000E+01 6.000E+00 2.000E+00 1.000E+00
     4  3.000E-05 3.000E-05 3.000E+00 3.000E+00 1.080E+03 1.060E+03 1.000E+01 1.000E+01                     3.000E-02
     5  3.000E-05 3.000E-05 3.000E+00 3.000E+00 1.060E+03 1.045E+03
     6  3.000E-05 3.000E-05 3.000E+00 3.000E+00 1.045E+03 1.025E+03 1.200E+01 1.200E+01                     3.000E-02
     7  6.000E-05 6.000E-05 3.000E+00 3.000E+00 1.040E+03 1.025E+03                                         2.500E-02 4.500E-02
     8  6.000E-05 6.000E-05 3.000E+00 3.000E+00 1.025E+03 9.900E+02                                         2.500E-02 4.500E-02

  EIGHT POINT CROSS-SECTION DATA FOR SEGMENTS WITH ICALC = 2
    X VALUES X VALUES START FROM LEFT SIDE LOOKING DOWNSTREAM

     SEGMENT NO.        X1        X2        X3        X4        X5        X6        X7        X8
            7      0.000E+00 1.000E+01 8.000E+01 1.000E+02 1.500E+02 1.700E+02 2.400E+02 2.500E+02
            8      0.000E+00 1.000E+01 8.000E+01 1.000E+02 1.500E+02 1.700E+02 2.400E+02 2.500E+02

    Z VALUES ARE RELATIVE TO STREAMBED ELEVATION

     SEGMENT NO.          Z1        Z2        Z3        Z4        Z5        Z6        Z7        Z8
            7      2.000E+01 1.300E+01 1.000E+01 2.000E+00 0.000E+00 1.000E+01 1.300E+01 2.000E+01
            8      2.500E+01 1.700E+01 1.300E+01 4.000E+00 0.000E+00 1.000E+01 1.600E+01 2.000E+01

 STREAMFLOW RELATION WITH DEPTH IS BASED ON EQUATION Q = CDPTH*(DEPTH)**FDPTH
 STREAMFLOW RELATION WITH WIDTH IS BASED ON EQUATION Q = AWDTH*(WIDTH)**BWDTH

 SEGMENT NO.      CDPTH     FDPTH    AWDTH     BWDTH

          5 3.000E-01 3.500E-01 3.800E+00 6.000E-01

 STREAMFLOW RELATION WITH DEPTH AND WIDTH IS BASED ON TABULATED VALUES

  SEGMENT NO.   STREAMFLOW       DEPTH       WIDTH

          1     5.0000E-01   2.5000E-01   3.0000E+00
          1     1.0000E+00   4.0000E-01   3.5000E+00
          1     2.0000E+00   5.5000E-01   4.2000E+00
          1     4.0000E+00   7.0000E-01   5.3000E+00
          1     7.0000E+00   8.0000E-01   7.0000E+00
          1     1.0000E+01   9.0000E-01   8.5000E+00
          1     2.0000E+01   1.1000E+00   1.2000E+01
          1     3.0000E+01   1.2500E+00   1.4000E+01
          1     5.0000E+01   1.4000E+00   1.7000E+01
          1     7.5000E+01   1.7000E+00   2.0000E+01
          1     1.0000E+02   1.8000E+00   2.2000E+01



TABULAR INFLOWS WERE READ FOR SEGMENT      1
FROM FILE UNIT NUMBER     55

          TIMES                    INFLOWS
             0.0000000000         5.0000000000
         86400.0000000000        22.0000000000
       2760000.0000000000        42.0000000000
       5270000.0000000000        77.0000000000
       7950000.0000000000        28.0000000000
      10500000.0000000000        99.0000000000
      13200000.0000000000        83.0000000000
      15800000.0000000000        75.0000000000
      18500000.0000000000        61.0000000000
      21200000.0000000000        47.0000000000
      23800000.0000000000        35.0000000000
      26400000.0000000000        26.0000000000
      29000000.0000000000        23.0000000000
      31700000.0000000000        19.0000000000
      34400000.0000000000        21.0000000000
      36800000.0000000000        98.0000000000
      39500000.0000000000        75.0000000000
      42100000.0000000000        63.0000000000
      44800000.0000000000        58.0000000000
      47300000.0000000000        54.0000000000
      50000000.0000000000        37.0000000000
      52700000.0000000000        25.0000000000
      55300000.0000000000        22.0000000000
      58000000.0000000000        21.0000000000
      60600000.0000000000        20.0000000000
      63200000.0000000000        19.0000000000



            AREAL INFILTRATION RATE
 READING ON UNIT   19 WITH FORMAT: (10F4.0)            

            1           2           3           4           5           6           7           8           9          10
 ........................................................................................................................
   1   1.0000E-10  2.0000E-10   0.000       0.000       0.000       0.000       0.000       0.000       0.000       0.000    
   2   2.0000E-10  1.0000E-10  2.0000E-10   0.000       0.000      8.0000E-10  8.0000E-10  5.0000E-10   0.000       0.000    
   3    0.000      5.0000E-10  1.0000E-10  1.0000E-10  8.0000E-10  8.0000E-10  5.0000E-10  5.0000E-10   0.000       0.000    
   4   8.0000E-10  5.0000E-10  1.0000E-10  1.0000E-10  1.0000E-10  1.0000E-10  1.0000E-10  1.0000E-10  2.0000E-10   0.000    
   5   8.0000E-10  5.0000E-10  1.0000E-10  1.0000E-10  1.0000E-10  1.0000E-10  1.0000E-10  1.0000E-10  1.0000E-10  1.0000E-10
   6   8.0000E-10  5.0000E-10  5.0000E-10  2.0000E-10  2.0000E-10  1.0000E-10  1.0000E-10  1.0000E-10  1.0000E-10  5.0000E-10
   7   8.0000E-10  5.0000E-10  5.0000E-10  2.0000E-10  2.0000E-10  1.0000E-10  1.0000E-10  2.0000E-10  2.0000E-10   0.000    
   8    0.000      5.0000E-10  5.0000E-10  2.0000E-10  2.0000E-10  1.0000E-10  1.0000E-10  2.0000E-10  5.0000E-10   0.000    
   9    0.000      5.0000E-10  5.0000E-10  2.0000E-10  2.0000E-10  1.0000E-10  1.0000E-10  2.0000E-10  5.0000E-10   0.000    
  10    0.000      5.0000E-10  5.0000E-10  2.0000E-10  2.0000E-10  1.0000E-10  1.0000E-10  2.0000E-10  5.0000E-10  8.0000E-10
  11    0.000      1.0000E-10  1.0000E-10  1.0000E-10  1.0000E-10  1.0000E-10  1.0000E-10  2.0000E-10  5.0000E-10   0.000    
  12   1.0000E-10  1.0000E-10  1.0000E-10  1.0000E-10  1.0000E-10  1.0000E-10  1.0000E-10  1.0000E-10  2.0000E-10   0.000    
  13   1.0000E-10  1.0000E-10  2.0000E-10  2.0000E-10  2.0000E-10  2.0000E-10  2.0000E-10  1.0000E-10  1.0000E-10   0.000    
  14    0.000      2.0000E-10  5.0000E-10  5.0000E-10  5.0000E-10  5.0000E-10  5.0000E-10  2.0000E-10  1.0000E-10   0.000    
  15    0.000       0.000      8.0000E-10  8.0000E-10  8.0000E-10  8.0000E-10   0.000       0.000       0.000       0.000    

                  ET RATE =  1.000000E-08

      ET EXTINCTION DEPTH =   5.00000    

 EXTINCTION WATER CONTENT =  7.000000E-02
 # AWU well list

 PROCESSING WELL LIST

 LAYER   ROW   COL   MAX STRESS RATE         
 --------------------------------------------
      1      1      6      4      -10.00    
      2      1      6      5      -10.00    
      3      1      7      4      -10.00    
      4      1      7      5      -10.00    
      5      1      8      4      -10.00    
      6      1      8      5      -10.00    

 FINISHED READING WELL LIST

      6 WELLS

 PROCESSING AWU STRESS PERIOD DATA
 # AWU stress period

 READING AWU STRESS PERIOD DATA

 READING IRRIGATION WELL

 END PROCESSING AWU STRESS PERIOD DATA OPTIONS
 
 SOLVING FOR HEAD 
                                                   Max.-Head-Change                         Max.-Flux-Residual
  Residual-Control   Outer-Iter.   Inner-Iter.     Column Row Layer    Maximum-Head-Change  Column Row Layer    Maximum-Flux-Residual          L2-NORM 
          0                 1           6             2    2     1      -0.2647755603E+02       3    3    1        -0.3343270791E+01      0.9154263424E+01
          0                 2           6             1    1     1      -0.3274896442E+02       1   13    1        -0.1711826791E+02      0.1781680713E+02
          0                 3           5             6   13     1      -0.1413776341E+01       6   13    1        -0.2334720320E+01      0.2909519550E+01
          0                 4           5             5   13     1      -0.2502496929E+00       5   13    1        -0.5010726931E+00      0.5347605584E+00
          0                 5           4             5   14     1       0.4745110741E-01       5   13    1         0.2603947412E-01      0.4236272885E-01
          0                 6           2             5   14     1      -0.1861716743E-02       6   10    1        -0.1372924737E-02      0.3212587123E-02
          0                 7           1             5   14     1       0.2945757694E-04       4   13    1         0.9655447866E-04      0.1619721106E-03

    ------------------------------------------------
       NWT REQUIRED            7 OUTER ITERATIONS 
       AND A TOTAL OF         29 INNER ITERATIONS.
    ------------------------------------------------

 OUTPUT CONTROL FOR STRESS PERIOD    1   TIME STEP    1
    PRINT BUDGET
    SAVE BUDGET
 UBDSV2 SAVING "   CONSTANT HEAD" ON UNIT 102 AT TIME STEP  1, STRESS PERIOD   1
 UBDSV1 SAVING "FLOW RIGHT FACE " ON UNIT 102 AT TIME STEP  1, STRESS PERIOD   1
 UBDSV1 SAVING "FLOW FRONT FACE " ON UNIT 102 AT TIME STEP  1, STRESS PERIOD   1

  HEAD DEP BOUNDS   PERIOD    1   STEP     1
 BOUNDARY      1   LAYER   1   ROW    13   COL     1   RATE   -0.284480    
 BOUNDARY      2   LAYER   1   ROW    14   COL     9   RATE    0.285742    



 STREAM LISTING     PERIOD      1   STEP        1

 LAYER ROW COL. STREAM  RCH.  FLOW INTO     FLOW TO   FLOW OUT OF   OVRLND.     DIRECT     STREAM       STREAM     STREAM     STREAM   STREAMBED  STREAMBED
                SEG.NO.  NO.  STRM. RCH.    AQUIFER    STRM. RCH.    RUNOFF     PRECIP       ET          HEAD       DEPTH      WIDTH   CONDCTNC.   GRADIENT

   1    1    1     1     1    5.0000E+00  9.9080E-02   4.9009E+00  0.000E+00  0.000E+00  0.000E+00  1.09378E+03  7.365E-01  5.893E+00  2.652E-02  1.246E+00
   1    2    2     1     2    4.9009E+00  1.5199E-01   4.7489E+00  0.000E+00  0.000E+00  0.000E+00  1.08879E+03  7.320E-01  5.818E+00  4.072E-02  1.244E+00
   1    3    3     1     3    4.7489E+00  1.2820E-01   4.6207E+00  0.000E+00  0.000E+00  0.000E+00  1.08315E+03  7.269E-01  5.733E+00  3.440E-02  1.242E+00
   1    3    4     1     4    4.6207E+00  1.1689E-01   4.5038E+00  0.000E+00  0.000E+00  0.000E+00  1.07813E+03  7.223E-01  5.658E+00  3.140E-02  1.241E+00
   1    4    5     2     1    2.5038E+00  2.5694E-01   2.2469E+00  0.000E+00  0.000E+00  0.000E+00  1.07223E+03  2.942E-01  1.200E+01  7.800E-02  1.098E+00
   1    5    6     2     2    2.2469E+00  1.9662E-01   2.0503E+00  0.000E+00  0.000E+00  0.000E+00  1.06679E+03  2.770E-01  1.200E+01  6.000E-02  1.092E+00
   1    6    6     2     3    2.0503E+00  1.9569E-01   1.8546E+00  0.000E+00  0.000E+00  0.000E+00  1.06205E+03  2.615E-01  1.200E+01  6.000E-02  1.087E+00
   1    7    6     2     4    1.8546E+00  1.9473E-01   1.6599E+00  0.000E+00  0.000E+00  0.000E+00  1.05732E+03  2.455E-01  1.200E+01  6.000E-02  1.082E+00
   1    8    6     2     5    1.6599E+00  1.9373E-01   1.4661E+00  0.000E+00  0.000E+00  0.000E+00  1.05259E+03  2.288E-01  1.200E+01  6.000E-02  1.076E+00
   1    3    5     3     1    2.0000E+00  2.8252E-01   1.7175E+00  0.000E+00  0.000E+00  0.000E+00  1.07555E+03  1.909E+00  9.636E+00  7.227E-02  1.955E+00
   1    3    6     3     2    1.7175E+00  2.4905E-01   1.4684E+00  0.000E+00  0.000E+00  0.000E+00  1.07264E+03  1.727E+00  8.909E+00  6.682E-02  1.864E+00
   1    3    7     3     3    1.4684E+00  1.9718E-01   1.2712E+00  0.000E+00  0.000E+00  0.000E+00  1.06987E+03  1.555E+00  8.218E+00  5.547E-02  1.777E+00
   1    4    8     3     4    1.2712E+00  2.2567E-01   1.0456E+00  0.000E+00  0.000E+00  0.000E+00  1.06682E+03  1.364E+00  7.455E+00  6.709E-02  1.682E+00
   1    5    8     3     5    1.0456E+00  1.5790E-01   8.8768E-01  0.000E+00  0.000E+00  0.000E+00  1.06362E+03  1.164E+00  6.655E+00  4.991E-02  1.582E+00
   1    6    8     3     6    8.8768E-01  5.5980E-02   8.3170E-01  0.000E+00  0.000E+00  0.000E+00  1.06158E+03  1.036E+00  6.145E+00  1.844E-02  1.518E+00
   1    5   10     4     1    1.0000E+01  9.0919E-02   9.9091E+00  0.000E+00  0.000E+00  0.000E+00  1.07836E+03  6.368E-01  1.000E+01  2.500E-02  1.212E+00
   1    5    9     4     2    9.9091E+00  1.8158E-01   9.7275E+00  0.000E+00  0.000E+00  0.000E+00  1.07154E+03  6.315E-01  1.000E+01  5.000E-02  1.211E+00
   1    6    8     4     3    9.7275E+00  1.2689E-01   9.6006E+00  0.000E+00  0.000E+00  0.000E+00  1.06381E+03  6.256E-01  1.000E+01  3.500E-02  1.209E+00
   1    6    8     5     1    1.0432E+01  2.2686E-01   1.0205E+01  0.000E+00  0.000E+00  0.000E+00  1.05868E+03  6.790E-01  1.542E+01  6.166E-02  1.226E+00
   1    7    7     5     2    1.0205E+01  2.7894E-01   9.9265E+00  0.000E+00  0.000E+00  0.000E+00  1.05417E+03  6.732E-01  1.519E+01  7.594E-02  1.224E+00
   1    8    7     5     3    9.9265E+00  1.9221E-01   9.7343E+00  0.000E+00  0.000E+00  0.000E+00  1.04992E+03  6.676E-01  1.497E+01  5.241E-02  1.223E+00
   1    8    6     5     4    9.7343E+00  1.3577E-01   9.5985E+00  0.000E+00  0.000E+00  0.000E+00  1.04691E+03  6.637E-01  1.482E+01  3.706E-02  1.221E+00
   1    9    6     6     1    1.1065E+01  2.2465E-01   1.0840E+01  0.000E+00  0.000E+00  0.000E+00  1.04347E+03  7.442E-01  1.200E+01  6.000E-02  1.248E+00
   1   10    7     6     2    1.0840E+01  2.2410E-01   1.0616E+01  0.000E+00  0.000E+00  0.000E+00  1.03892E+03  7.350E-01  1.200E+01  6.000E-02  1.245E+00
   1   11    7     6     3    1.0616E+01  2.2354E-01   1.0392E+01  0.000E+00  0.000E+00  0.000E+00  1.03436E+03  7.257E-01  1.200E+01  6.000E-02  1.242E+00
   1   12    7     6     4    1.0392E+01  2.2299E-01   1.0169E+01  0.000E+00  0.000E+00  0.000E+00  1.02981E+03  7.165E-01  1.200E+01  6.000E-02  1.239E+00
   1   13    7     6     5    1.0169E+01 -9.5300E-02   1.0265E+01  0.000E+00  0.000E+00  0.000E+00  1.02662E+03  7.138E-01  1.200E+01  2.400E-01 -1.324E-01
   1   14    9     7     1    1.5000E+02  1.3356E+00   1.4866E+02  0.000E+00  0.000E+00  0.000E+00  1.03987E+03  2.288E+00  5.529E+01  5.593E-01  7.960E-01
   1   13    8     7     2    1.4866E+02  1.8417E+00   1.4682E+02  0.000E+00  0.000E+00  0.000E+00  1.03478E+03  2.279E+00  5.526E+01  6.148E-01  9.986E-01
   1   13    7     7     3    1.4682E+02  1.4909E+00   1.4533E+02  0.000E+00  0.000E+00  0.000E+00  1.02969E+03  2.270E+00  5.522E+01  5.584E-01  8.899E-01
   1   13    6     8     1    1.5560E+02  8.6429E-01   1.5473E+02  0.000E+00  0.000E+00  0.000E+00  1.02473E+03  2.853E+00  4.137E+01  4.215E-01  6.834E-01
   1   13    5     8     2    1.5473E+02  1.5160E-01   1.5458E+02  0.000E+00  0.000E+00  0.000E+00  1.01847E+03  2.849E+00  4.132E+01  4.210E-01  1.200E-01
   1   13    4     8     3    1.5458E+02 -2.4372E+00   1.5702E+02  0.000E+00  0.000E+00  0.000E+00  1.01223E+03  2.857E+00  4.143E+01  4.222E+00 -1.924E-01
   1   13    3     8     4    1.5702E+02 -3.5513E+00   1.6057E+02  0.000E+00  0.000E+00  0.000E+00  1.00600E+03  2.878E+00  4.173E+01  4.252E+00 -2.784E-01
   1   13    2     8     5    1.6057E+02 -2.4850E+00   1.6305E+02  0.000E+00  0.000E+00  0.000E+00  9.99773E+02  2.898E+00  4.202E+01  4.282E+00 -1.934E-01
   1   13    1     8     6    1.6305E+02 -1.8046E+00   1.6486E+02  0.000E+00  0.000E+00  0.000E+00  9.94787E+02  2.912E+00  4.223E+01  2.582E+00 -2.330E-01



 UBDSV3 SAVING "           GW ET" ON UNIT  61 AT TIME STEP  1, STRESS PERIOD   1
 UBDSV3 SAVING "    UZF RECHARGE" ON UNIT  61 AT TIME STEP  1, STRESS PERIOD   1
 UBDSV3 SAVING " SURFACE LEAKAGE" ON UNIT  61 AT TIME STEP  1, STRESS PERIOD   1
 UBDSV3 SAVING "       HORT+DUNN" ON UNIT  61 AT TIME STEP  1, STRESS PERIOD   1
 UBDSV3 SAVING "  STORAGE CHANGE" ON UNIT  61 AT TIME STEP  1, STRESS PERIOD   1


UNSATURATED ZONE PACKAGE VOLUMETRIC BUDGET FOR  TIME STEP     1 STRESS PERIOD    1
  ------------------------------------------------------------------------------



     CUMULATIVE VOLUMES      L**3       RATES FOR THIS TIME STEP      L**3/T
     ------------------                 ------------------------

           IN:                                      IN:
           ---                                      ---
        INFILTRATION =       73224.0000          INFILTRATION =           0.8475

          OUT:                                     OUT:
          ----                                     ----
              UZF ET =       0.0000E+00                UZF ET =       0.0000E+00
        UZF RECHARGE =       73224.0000          UZF RECHARGE =           0.8475

            IN - OUT =       0.0000E+00              IN - OUT =       0.0000E+00

          STORAGE:                                 STORAGE:
          --------                                 --------
      STORAGE CHANGE =       0.0000E+00        STORAGE CHANGE =       0.0000E+00

 PERCENT DISCREPANCY IS DIFFERENCE BETWEEN IN-OUT MINUS CHANGE IN STORAGE
 DIVIDED BY THE AVERAGE OF IN AND OUT TIMES 100

 PERCENT DISCREPANCY =           0.00     PERCENT DISCREPANCY =           0.00






1
  VOLUMETRIC BUDGET FOR ENTIRE MODEL AT END OF TIME STEP    1, STRESS PERIOD   1
  ------------------------------------------------------------------------------

     CUMULATIVE VOLUMES      L**3       RATES FOR THIS TIME STEP      L**3/T
     ------------------                 ------------------------

           IN:                                      IN:
           ---                                      ---
             STORAGE     =           0.0000               STORAGE     =           0.0000
       CONSTANT HEAD     =           0.0000         CONSTANT HEAD     =           0.0000
     HEAD DEP BOUNDS     =       24688.1094       HEAD DEP BOUNDS     =           0.2857
      STREAM LEAKAGE     =      908468.3750        STREAM LEAKAGE     =          10.5147
        UZF RECHARGE     =       73223.9531          UZF RECHARGE     =           0.8475
               GW ET     =           0.0000                 GW ET     =           0.0000
     SURFACE LEAKAGE     =           0.0000       SURFACE LEAKAGE     =           0.0000

                TOTAL IN =     1006380.4375                  TOTAL IN =          11.6479

          OUT:                                     OUT:
          ----                                     ----
             STORAGE     =           0.0000               STORAGE     =           0.0000
       CONSTANT HEAD     =           0.0000         CONSTANT HEAD     =           0.0000
     HEAD DEP BOUNDS     =       24579.1133       HEAD DEP BOUNDS     =           0.2845
      STREAM LEAKAGE     =      896270.3750        STREAM LEAKAGE     =          10.3735
        UZF RECHARGE     =           0.0000          UZF RECHARGE     =           0.0000
               GW ET     =       85530.3672                 GW ET     =           0.9899
     SURFACE LEAKAGE     =           0.0000       SURFACE LEAKAGE     =           0.0000

               TOTAL OUT =     1006379.8750                 TOTAL OUT =          11.6479

                IN - OUT =           0.5625                  IN - OUT =       6.6757E-06

     PERCENT DISCREPANCY =           0.00         PERCENT DISCREPANCY =           0.00






         TIME SUMMARY AT END OF TIME STEP    1 IN STRESS PERIOD    1
                    SECONDS     MINUTES      HOURS       DAYS        YEARS
                    -----------------------------------------------------------
   TIME STEP LENGTH  86400.      1440.0      24.000      1.0000     2.73785E-03
 STRESS PERIOD TIME  86400.      1440.0      24.000      1.0000     2.73785E-03
         TOTAL TIME  86400.      1440.0      24.000      1.0000     2.73785E-03
1
1
                            STRESS PERIOD NO.    2, LENGTH =   2628000.    
                            -----------------------------------------------

                              NUMBER OF TIME STEPS =    30

                               MULTIPLIER FOR DELT =     1.000

                            INITIAL TIME STEP SIZE =   87600.00    

 REUSING NON-PARAMETER GHB CELLS FROM LAST STRESS PERIOD

      2 GHB CELLS

 REUSING STREAM SEGMENT DATA FROM LAST STRESS PERIOD



            AREAL INFILTRATION RATE
 READING ON UNIT   19 WITH FORMAT: (10F4.0)            

            1           2           3           4           5           6           7           8           9          10
 ........................................................................................................................
   1   1.0000E-10  2.0000E-10   0.000       0.000       0.000       0.000       0.000       0.000       0.000       0.000    
   2   2.0000E-10  1.0000E-10  2.0000E-10   0.000       0.000      8.0000E-10  8.0000E-10  5.0000E-10   0.000       0.000    
   3    0.000      5.0000E-10  1.0000E-10  1.0000E-10  8.0000E-10  8.0000E-10  5.0000E-10  5.0000E-10   0.000       0.000    
   4   8.0000E-10  5.0000E-10  1.0000E-10  1.0000E-10  1.0000E-10  1.0000E-10  1.0000E-10  1.0000E-10  2.0000E-10   0.000    
   5   8.0000E-10  5.0000E-10  1.0000E-10  1.0000E-10  1.0000E-10  1.0000E-10  1.0000E-10  1.0000E-10  1.0000E-10  1.0000E-10
   6   8.0000E-10  5.0000E-10  5.0000E-10  2.0000E-10  2.0000E-10  1.0000E-10  1.0000E-10  1.0000E-10  1.0000E-10  5.0000E-10
   7   8.0000E-10  5.0000E-10  5.0000E-10  2.0000E-10  2.0000E-10  1.0000E-10  1.0000E-10  2.0000E-10  2.0000E-10   0.000    
   8    0.000      5.0000E-10  5.0000E-10  2.0000E-10  2.0000E-10  1.0000E-10  1.0000E-10  2.0000E-10  5.0000E-10   0.000    
   9    0.000      5.0000E-10  5.0000E-10  2.0000E-10  2.0000E-10  1.0000E-10  1.0000E-10  2.0000E-10  5.0000E-10   0.000    
  10    0.000      5.0000E-10  5.0000E-10  2.0000E-10  2.0000E-10  1.0000E-10  1.0000E-10  2.0000E-10  5.0000E-10  8.0000E-10
  11    0.000      1.0000E-10  1.0000E-10  1.0000E-10  1.0000E-10  1.0000E-10  1.0000E-10  2.0000E-10  5.0000E-10   0.000    
  12   1.0000E-10  1.0000E-10  1.0000E-10  1.0000E-10  1.0000E-10  1.0000E-10  1.0000E-10  1.0000E-10  2.0000E-10   0.000    
  13   1.0000E-10  1.0000E-10  2.0000E-10  2.0000E-10  2.0000E-10  2.0000E-10  2.0000E-10  1.0000E-10  1.0000E-10   0.000    
  14    0.000      2.0000E-10  5.0000E-10  5.0000E-10  5.0000E-10  5.0000E-10  5.0000E-10  2.0000E-10  1.0000E-10   0.000    
  15    0.000       0.000      8.0000E-10  8.0000E-10  8.0000E-10  8.0000E-10   0.000       0.000       0.000       0.000    

                  ET RATE =  1.000000E-10

 USING ET EXTINCTION DEPTH FROM PREVIOUS STRESS PERIOD. CURRENT PERIOD IS:       2

 USING EXTINCTION WATER CONTENT FROM PREVIOUS STRESS PERIOD. CURRENT PERIOD IS:       2

 PROCESSING AWU STRESS PERIOD DATA

 READING AWU STRESS PERIOD DATA

 READING IRRIGATION WELL

 END PROCESSING AWU STRESS PERIOD DATA OPTIONS
 
 SOLVING FOR HEAD 
                                                   Max.-Head-Change                         Max.-Flux-Residual
  Residual-Control   Outer-Iter.   Inner-Iter.     Column Row Layer    Maximum-Head-Change  Column Row Layer    Maximum-Flux-Residual          L2-NORM 
          0                 1           2             4   13     1       0.1006156579E-01       4   13    1         0.5750687561E+00      0.1088378297E+01
          0                 2           2             7   13     1      -0.5256931232E-03       7   13    1        -0.2921013544E-01      0.3050875982E-01
          0                 3           1             7   13     1      -0.1721800985E-04       7   13    1        -0.9562031366E-03      0.1066552951E-02

    ------------------------------------------------
       NWT REQUIRED            3 OUTER ITERATIONS 
       AND A TOTAL OF          5 INNER ITERATIONS.
    ------------------------------------------------

 NO OUTPUT CONTROL FOR STRESS PERIOD    2   TIME STEP    1
 
 SOLVING FOR HEAD 
                                                   Max.-Head-Change                         Max.-Flux-Residual
  Residual-Control   Outer-Iter.   Inner-Iter.     Column Row Layer    Maximum-Head-Change  Column Row Layer    Maximum-Flux-Residual          L2-NORM 
          0                 1           2             4   13     1       0.9085939236E-02       4   13    1         0.5189280334E+00      0.1011026474E+01
          0                 2           1             6    2     1       0.7492018062E-04       1   13    1         0.3405551476E-02      0.9732116821E-02

    ------------------------------------------------
       NWT REQUIRED            2 OUTER ITERATIONS 
       AND A TOTAL OF          3 INNER ITERATIONS.
    ------------------------------------------------

 NO OUTPUT CONTROL FOR STRESS PERIOD    2   TIME STEP    2
 
 SOLVING FOR HEAD 
                                                   Max.-Head-Change                         Max.-Flux-Residual
  Residual-Control   Outer-Iter.   Inner-Iter.     Column Row Layer    Maximum-Head-Change  Column Row Layer    Maximum-Flux-Residual          L2-NORM 
          0                 1           2             4   13     1       0.8201835765E-02       4   13    1         0.4680729802E+00      0.9435712673E+00
          0                 2           1             6    2     1       0.7492058618E-04       1   13    1         0.3178469913E-02      0.9525774735E-02

    ------------------------------------------------
       NWT REQUIRED            2 OUTER ITERATIONS 
       AND A TOTAL OF          3 INNER ITERATIONS.
    ------------------------------------------------

 NO OUTPUT CONTROL FOR STRESS PERIOD    2   TIME STEP    3
 
 SOLVING FOR HEAD 
                                                   Max.-Head-Change                         Max.-Flux-Residual
  Residual-Control   Outer-Iter.   Inner-Iter.     Column Row Layer    Maximum-Head-Change  Column Row Layer    Maximum-Flux-Residual          L2-NORM 
          0                 1           2             4   13     1       0.7410393612E-02       4   13    1         0.4225657273E+00      0.8829443096E+00
          0                 2           1             6    2     1       0.7490964763E-04       1   13    1         0.2969385587E-02      0.1010109824E-01

    ------------------------------------------------
       NWT REQUIRED            2 OUTER ITERATIONS 
       AND A TOTAL OF          3 INNER ITERATIONS.
    ------------------------------------------------

 NO OUTPUT CONTROL FOR STRESS PERIOD    2   TIME STEP    4
 
 SOLVING FOR HEAD 
                                                   Max.-Head-Change                         Max.-Flux-Residual
  Residual-Control   Outer-Iter.   Inner-Iter.     Column Row Layer    Maximum-Head-Change  Column Row Layer    Maximum-Flux-Residual          L2-NORM 
          0                 1           2             4   13     1       0.6701658705E-02       4   13    1         0.3818309869E+00      0.8283558752E+00
          0                 2           1             6    2     1       0.7490841658E-04       1   13    1         0.2774356460E-02      0.1062941045E-01

    ------------------------------------------------
       NWT REQUIRED            2 OUTER ITERATIONS 
       AND A TOTAL OF          3 INNER ITERATIONS.
    ------------------------------------------------

 NO OUTPUT CONTROL FOR STRESS PERIOD    2   TIME STEP    5
 
 SOLVING FOR HEAD 
                                                   Max.-Head-Change                         Max.-Flux-Residual
  Residual-Control   Outer-Iter.   Inner-Iter.     Column Row Layer    Maximum-Head-Change  Column Row Layer    Maximum-Flux-Residual          L2-NORM 
          0                 1           2             4   13     1       0.6066585182E-02       4   13    1         0.3453453683E+00      0.7791815724E+00
          0                 2           1             6    2     1       0.7490628634E-04       1   13    1         0.2592166635E-02      0.1050707403E-01

    ------------------------------------------------
       NWT REQUIRED            2 OUTER ITERATIONS 
       AND A TOTAL OF          3 INNER ITERATIONS.
    ------------------------------------------------

 NO OUTPUT CONTROL FOR STRESS PERIOD    2   TIME STEP    6
 
 SOLVING FOR HEAD 
                                                   Max.-Head-Change                         Max.-Flux-Residual
  Residual-Control   Outer-Iter.   Inner-Iter.     Column Row Layer    Maximum-Head-Change  Column Row Layer    Maximum-Flux-Residual          L2-NORM 
          0                 1           2             4   13     1       0.5497336057E-02       4   13    1         0.3126570015E+00      0.7349364404E+00
          0                 2           1             6    2     1       0.7490336662E-04       1   13    1         0.2426768850E-02      0.1037867760E-01

    ------------------------------------------------
       NWT REQUIRED            2 OUTER ITERATIONS 
       AND A TOTAL OF          3 INNER ITERATIONS.
    ------------------------------------------------

 NO OUTPUT CONTROL FOR STRESS PERIOD    2   TIME STEP    7
 
 SOLVING FOR HEAD 
                                                   Max.-Head-Change                         Max.-Flux-Residual
  Residual-Control   Outer-Iter.   Inner-Iter.     Column Row Layer    Maximum-Head-Change  Column Row Layer    Maximum-Flux-Residual          L2-NORM 
          0                 1           2             1   13     1       0.5107065467E-02       4   13    1         0.2833470781E+00      0.6951098469E+00
          0                 2           1             6    2     1       0.7488908502E-04       1   13    1         0.2271335363E-02      0.1026616800E-01

    ------------------------------------------------
       NWT REQUIRED            2 OUTER ITERATIONS 
       AND A TOTAL OF          3 INNER ITERATIONS.
    ------------------------------------------------

 NO OUTPUT CONTROL FOR STRESS PERIOD    2   TIME STEP    8
 
 SOLVING FOR HEAD 
                                                   Max.-Head-Change                         Max.-Flux-Residual
  Residual-Control   Outer-Iter.   Inner-Iter.     Column Row Layer    Maximum-Head-Change  Column Row Layer    Maximum-Flux-Residual          L2-NORM 
          0                 1           2             1   13     1       0.4857925239E-02       1   13    1         0.2646479631E+00      0.6592451265E+00
          0                 2           1             6    2     1       0.7488450727E-04       1   13    1         0.2126458928E-02      0.1017183072E-01

    ------------------------------------------------
       NWT REQUIRED            2 OUTER ITERATIONS 
       AND A TOTAL OF          3 INNER ITERATIONS.
    ------------------------------------------------

 NO OUTPUT CONTROL FOR STRESS PERIOD    2   TIME STEP    9
 
 SOLVING FOR HEAD 
                                                   Max.-Head-Change                         Max.-Flux-Residual
  Residual-Control   Outer-Iter.   Inner-Iter.     Column Row Layer    Maximum-Head-Change  Column Row Layer    Maximum-Flux-Residual          L2-NORM 
          0                 1           2             1   13     1       0.4619604399E-02       1   13    1         0.2517041315E+00      0.6269369061E+00
          0                 2           1             6    2     1       0.7487908215E-04       6    2    1         0.1999002914E-02      0.1009092647E-01

    ------------------------------------------------
       NWT REQUIRED            2 OUTER ITERATIONS 
       AND A TOTAL OF          3 INNER ITERATIONS.
    ------------------------------------------------

 NO OUTPUT CONTROL FOR STRESS PERIOD    2   TIME STEP   10
 
 SOLVING FOR HEAD 
                                                   Max.-Head-Change                         Max.-Flux-Residual
  Residual-Control   Outer-Iter.   Inner-Iter.     Column Row Layer    Maximum-Head-Change  Column Row Layer    Maximum-Flux-Residual          L2-NORM 
          0                 1           2             1   13     1       0.4391793144E-02       1   13    1         0.2393273187E+00      0.5978070000E+00
          0                 2           1             6    2     1       0.7486231851E-04       6    2    1         0.1998576565E-02      0.9999203753E-02

    ------------------------------------------------
       NWT REQUIRED            2 OUTER ITERATIONS 
       AND A TOTAL OF          3 INNER ITERATIONS.
    ------------------------------------------------

 NO OUTPUT CONTROL FOR STRESS PERIOD    2   TIME STEP   11
 
 SOLVING FOR HEAD 
                                                   Max.-Head-Change                         Max.-Flux-Residual
  Residual-Control   Outer-Iter.   Inner-Iter.     Column Row Layer    Maximum-Head-Change  Column Row Layer    Maximum-Flux-Residual          L2-NORM 
          0                 1           2             1   13     1       0.4174170346E-02       1   13    1         0.2275006075E+00      0.5715357751E+00
          0                 2           1             6    2     1       0.7485524705E-04       6    2    1         0.1998411019E-02      0.9919074276E-02

    ------------------------------------------------
       NWT REQUIRED            2 OUTER ITERATIONS 
       AND A TOTAL OF          3 INNER ITERATIONS.
    ------------------------------------------------

 NO OUTPUT CONTROL FOR STRESS PERIOD    2   TIME STEP   12
 
 SOLVING FOR HEAD 
                                                   Max.-Head-Change                         Max.-Flux-Residual
  Residual-Control   Outer-Iter.   Inner-Iter.     Column Row Layer    Maximum-Head-Change  Column Row Layer    Maximum-Flux-Residual          L2-NORM 
          0                 1           2             1   13     1       0.3966369288E-02       1   13    1         0.2162045461E+00      0.5478077220E+00
          0                 2           1             6    2     1       0.7484731945E-04       6    2    1         0.1998222388E-02      0.9834271394E-02

    ------------------------------------------------
       NWT REQUIRED            2 OUTER ITERATIONS 
       AND A TOTAL OF          3 INNER ITERATIONS.
    ------------------------------------------------

 NO OUTPUT CONTROL FOR STRESS PERIOD    2   TIME STEP   13
 
 SOLVING FOR HEAD 
                                                   Max.-Head-Change                         Max.-Flux-Residual
  Residual-Control   Outer-Iter.   Inner-Iter.     Column Row Layer    Maximum-Head-Change  Column Row Layer    Maximum-Flux-Residual          L2-NORM 
          0                 1           2             1   13     1       0.3768039257E-02       1   13    1         0.2054204685E+00      0.5263649181E+00
          0                 2           1             6    2     1       0.7482800905E-04       6    2    1         0.1997729325E-02      0.9758052723E-02

    ------------------------------------------------
       NWT REQUIRED            2 OUTER ITERATIONS 
       AND A TOTAL OF          3 INNER ITERATIONS.
    ------------------------------------------------

 NO OUTPUT CONTROL FOR STRESS PERIOD    2   TIME STEP   14
 
 SOLVING FOR HEAD 
                                                   Max.-Head-Change                         Max.-Flux-Residual
  Residual-Control   Outer-Iter.   Inner-Iter.     Column Row Layer    Maximum-Head-Change  Column Row Layer    Maximum-Flux-Residual          L2-NORM 
          0                 1           2             1   13     1       0.3578850189E-02       1   13    1         0.1951308291E+00      0.5069540088E+00
          0                 2           1             6    2     1       0.7481838864E-04       6    2    1         0.1997495898E-02      0.9695296759E-02

    ------------------------------------------------
       NWT REQUIRED            2 OUTER ITERATIONS 
       AND A TOTAL OF          3 INNER ITERATIONS.
    ------------------------------------------------

 NO OUTPUT CONTROL FOR STRESS PERIOD    2   TIME STEP   15
 
 SOLVING FOR HEAD 
                                                   Max.-Head-Change                         Max.-Flux-Residual
  Residual-Control   Outer-Iter.   Inner-Iter.     Column Row Layer    Maximum-Head-Change  Column Row Layer    Maximum-Flux-Residual          L2-NORM 
          0                 1           2             2    2     1       0.3453657957E-02       1   13    1         0.1853184320E+00      0.4893610690E+00
          0                 2           1             6    2     1       0.7480791258E-04       6    2    1         0.1997239326E-02      0.9649208906E-02

    ------------------------------------------------
       NWT REQUIRED            2 OUTER ITERATIONS 
       AND A TOTAL OF          3 INNER ITERATIONS.
    ------------------------------------------------

 NO OUTPUT CONTROL FOR STRESS PERIOD    2   TIME STEP   16
 
 SOLVING FOR HEAD 
                                                   Max.-Head-Change                         Max.-Flux-Residual
  Residual-Control   Outer-Iter.   Inner-Iter.     Column Row Layer    Maximum-Head-Change  Column Row Layer    Maximum-Flux-Residual          L2-NORM 
          0                 1           2             2    2     1       0.3427216004E-02       2    2    1         0.1791879950E+00      0.4733948515E+00
          0                 2           1             6    2     1       0.7478604617E-04       6    2    1         0.1996678350E-02      0.9625342616E-02

    ------------------------------------------------
       NWT REQUIRED            2 OUTER ITERATIONS 
       AND A TOTAL OF          3 INNER ITERATIONS.
    ------------------------------------------------

 NO OUTPUT CONTROL FOR STRESS PERIOD    2   TIME STEP   17
 
 SOLVING FOR HEAD 
                                                   Max.-Head-Change                         Max.-Flux-Residual
  Residual-Control   Outer-Iter.   Inner-Iter.     Column Row Layer    Maximum-Head-Change  Column Row Layer    Maximum-Flux-Residual          L2-NORM 
          0                 1           2             2    2     1       0.3401110926E-02       2    2    1         0.1778138044E+00      0.4588854602E+00
          0                 2           1             6    2     1       0.7477384786E-04       6    2    1         0.1996376761E-02      0.9591392391E-02

    ------------------------------------------------
       NWT REQUIRED            2 OUTER ITERATIONS 
       AND A TOTAL OF          3 INNER ITERATIONS.
    ------------------------------------------------

 NO OUTPUT CONTROL FOR STRESS PERIOD    2   TIME STEP   18
 
 SOLVING FOR HEAD 
                                                   Max.-Head-Change                         Max.-Flux-Residual
  Residual-Control   Outer-Iter.   Inner-Iter.     Column Row Layer    Maximum-Head-Change  Column Row Layer    Maximum-Flux-Residual          L2-NORM 
[...]
          0                 1           2             4    7     1       0.9085310369E-02       4    7    1         0.4777885708E+00      0.1092786475E+01
          0                 2           2             4    7     1      -0.8837547222E-03       4    7    1        -0.4777897639E-01      0.1089648391E+00
          0                 3           1             4    7     1       0.6018040503E-04       4    7    1         0.3344528687E-02      0.7638315670E-02

    ------------------------------------------------
       NWT REQUIRED            3 OUTER ITERATIONS 
       AND A TOTAL OF          5 INNER ITERATIONS.
    ------------------------------------------------

 NO OUTPUT CONTROL FOR STRESS PERIOD   25   TIME STEP   23
 
 SOLVING FOR HEAD 
                                                   Max.-Head-Change                         Max.-Flux-Residual
  Residual-Control   Outer-Iter.   Inner-Iter.     Column Row Layer    Maximum-Head-Change  Column Row Layer    Maximum-Flux-Residual          L2-NORM 
          0                 1           2             4    7     1       0.8983898284E-02       4    7    1         0.4724282206E+00      0.1083059992E+01
          0                 2           2             4    7     1      -0.8738900495E-03       4    7    1        -0.4724293855E-01      0.1079907646E+00
          0                 3           1             4    7     1       0.5950865694E-04       4    7    1         0.3307006019E-02      0.7570189699E-02

    ------------------------------------------------
       NWT REQUIRED            3 OUTER ITERATIONS 
       AND A TOTAL OF          5 INNER ITERATIONS.
    ------------------------------------------------

 NO OUTPUT CONTROL FOR STRESS PERIOD   25   TIME STEP   24
 
 SOLVING FOR HEAD 
                                                   Max.-Head-Change                         Max.-Flux-Residual
  Residual-Control   Outer-Iter.   Inner-Iter.     Column Row Layer    Maximum-Head-Change  Column Row Layer    Maximum-Flux-Residual          L2-NORM 
          0                 1           2             4    7     1       0.8883795945E-02       4    7    1         0.4671365732E+00      0.1073483233E+01
          0                 2           2             4    7     1      -0.8641527802E-03       4    7    1        -0.4671377103E-01      0.1070316623E+00
          0                 3           1             4    7     1       0.5884558576E-04       4    7    1         0.3269964306E-02      0.7503104798E-02

    ------------------------------------------------
       NWT REQUIRED            3 OUTER ITERATIONS 
       AND A TOTAL OF          5 INNER ITERATIONS.
    ------------------------------------------------

 NO OUTPUT CONTROL FOR STRESS PERIOD   25   TIME STEP   25
 
 SOLVING FOR HEAD 
                                                   Max.-Head-Change                         Max.-Flux-Residual
  Residual-Control   Outer-Iter.   Inner-Iter.     Column Row Layer    Maximum-Head-Change  Column Row Layer    Maximum-Flux-Residual          L2-NORM 
          0                 1           2             4    7     1       0.8785798660E-02       4    7    1         0.4619572115E+00      0.1064077304E+01
          0                 2           2             4    7     1      -0.8546202773E-03       4    7    1        -0.4619583219E-01      0.1060896606E+00
          0                 3           1             4    7     1       0.5819645819E-04       4    7    1         0.3233708606E-02      0.7437213704E-02

    ------------------------------------------------
       NWT REQUIRED            3 OUTER ITERATIONS 
       AND A TOTAL OF          5 INNER ITERATIONS.
    ------------------------------------------------

 NO OUTPUT CONTROL FOR STRESS PERIOD   25   TIME STEP   26
 
 SOLVING FOR HEAD 
                                                   Max.-Head-Change                         Max.-Flux-Residual
  Residual-Control   Outer-Iter.   Inner-Iter.     Column Row Layer    Maximum-Head-Change  Column Row Layer    Maximum-Flux-Residual          L2-NORM 
          0                 1           2             4    7     1       0.8689034969E-02       4    7    1         0.4568427508E+00      0.1054797108E+01
          0                 2           2             4    7     1      -0.8452077695E-03       4    7    1        -0.4568438349E-01      0.1051602372E+00
          0                 3           1             4    7     1       0.5755550129E-04       4    7    1         0.3197907194E-02      0.7372201996E-02

    ------------------------------------------------
       NWT REQUIRED            3 OUTER ITERATIONS 
       AND A TOTAL OF          5 INNER ITERATIONS.
    ------------------------------------------------

 NO OUTPUT CONTROL FOR STRESS PERIOD   25   TIME STEP   27
 
 SOLVING FOR HEAD 
                                                   Max.-Head-Change                         Max.-Flux-Residual
  Residual-Control   Outer-Iter.   Inner-Iter.     Column Row Layer    Maximum-Head-Change  Column Row Layer    Maximum-Flux-Residual          L2-NORM 
          0                 1           2             4    7     1       0.8594032334E-02       4    7    1         0.4518218501E+00      0.1045662122E+01
          0                 2           2             4    7     1      -0.8367323855E-03       4    7    1        -0.4523978030E-01      0.1042646114E+00
          0                 3           1             4    7     1       0.5697835719E-04       4    7    1         0.3166784835E-02      0.7309551114E-02

    ------------------------------------------------
       NWT REQUIRED            3 OUTER ITERATIONS 
       AND A TOTAL OF          5 INNER ITERATIONS.
    ------------------------------------------------

 NO OUTPUT CONTROL FOR STRESS PERIOD   25   TIME STEP   28
 
 SOLVING FOR HEAD 
                                                   Max.-Head-Change                         Max.-Flux-Residual
  Residual-Control   Outer-Iter.   Inner-Iter.     Column Row Layer    Maximum-Head-Change  Column Row Layer    Maximum-Flux-Residual          L2-NORM 
          0                 1           2             4    7     1       0.8497243071E-02       4    7    1         0.4468366519E+00      0.1036657296E+01
          0                 2           2             4    7     1      -0.8265517665E-03       4    7    1        -0.4468378204E-01      0.1033434553E+00
          0                 3           1             4    7     1       0.5628509550E-04       4    7    1         0.3127864981E-02      0.7245126833E-02

    ------------------------------------------------
       NWT REQUIRED            3 OUTER ITERATIONS 
       AND A TOTAL OF          5 INNER ITERATIONS.
    ------------------------------------------------

 NO OUTPUT CONTROL FOR STRESS PERIOD   25   TIME STEP   29
 
 SOLVING FOR HEAD 
                                                   Max.-Head-Change                         Max.-Flux-Residual
  Residual-Control   Outer-Iter.   Inner-Iter.     Column Row Layer    Maximum-Head-Change  Column Row Layer    Maximum-Flux-Residual          L2-NORM 
          0                 1           2             4    7     1       0.8402861269E-02       4    7    1         0.4418404985E+00      0.1027753956E+01
          0                 2           2             4    7     1      -0.8173709441E-03       4    7    1        -0.4418416354E-01      0.1024517343E+00
          0                 3           1             4    7     1       0.5565991572E-04       4    7    1         0.3092891685E-02      0.7182758365E-02

    ------------------------------------------------
       NWT REQUIRED            3 OUTER ITERATIONS 
       AND A TOTAL OF          5 INNER ITERATIONS.
    ------------------------------------------------

 NO OUTPUT CONTROL FOR STRESS PERIOD   25   TIME STEP   30



 STREAM LISTING     PERIOD     25   STEP       30

 LAYER ROW COL. STREAM  RCH.  FLOW INTO     FLOW TO   FLOW OUT OF   OVRLND.     DIRECT     STREAM       STREAM     STREAM     STREAM   STREAMBED  STREAMBED
                SEG.NO.  NO.  STRM. RCH.    AQUIFER    STRM. RCH.    RUNOFF     PRECIP       ET          HEAD       DEPTH      WIDTH   CONDCTNC.   GRADIENT

   1    1    1     1     1    2.0000E+01  2.2070E-01   1.9779E+01  0.000E+00  0.000E+00  0.000E+00  1.09415E+03  1.098E+00  1.197E+01  5.385E-02  1.366E+00
   1    2    2     1     2    1.9779E+01  3.4051E-01   1.9439E+01  0.000E+00  0.000E+00  0.000E+00  1.08915E+03  1.094E+00  1.188E+01  8.318E-02  1.365E+00
   1    3    3     1     3    1.9439E+01  2.8917E-01   1.9150E+01  0.000E+00  0.000E+00  0.000E+00  1.08351E+03  1.089E+00  1.179E+01  7.072E-02  1.363E+00
   1    3    4     1     4    1.9150E+01  2.6526E-01   1.8884E+01  0.000E+00  0.000E+00  0.000E+00  1.07849E+03  1.084E+00  1.170E+01  6.495E-02  1.361E+00
   1    4    5     2     1    1.6884E+01  3.0802E-01   1.6576E+01  0.000E+00  0.000E+00  0.000E+00  1.07288E+03  9.490E-01  1.200E+01  7.800E-02  1.316E+00
   1    5    6     2     2    1.6576E+01  2.3638E-01   1.6340E+01  0.000E+00  0.000E+00  0.000E+00  1.06745E+03  9.397E-01  1.200E+01  6.000E-02  1.313E+00
   1    6    6     2     3    1.6340E+01  2.3589E-01   1.6104E+01  0.000E+00  0.000E+00  0.000E+00  1.06272E+03  9.316E-01  1.200E+01  6.000E-02  1.311E+00
   1    7    6     2     4    1.6104E+01  2.3540E-01   1.5869E+01  0.000E+00  0.000E+00  0.000E+00  1.05800E+03  9.234E-01  1.200E+01  6.000E-02  1.308E+00
   1    8    6     2     5    1.5869E+01  2.3491E-01   1.5634E+01  0.000E+00  0.000E+00  0.000E+00  1.05327E+03  9.152E-01  1.200E+01  6.000E-02  1.305E+00
   1    3    5     3     1    2.0000E+00  2.8252E-01   1.7175E+00  0.000E+00  0.000E+00  0.000E+00  1.07555E+03  1.909E+00  9.636E+00  7.227E-02  1.955E+00
   1    3    6     3     2    1.7175E+00  2.4905E-01   1.4684E+00  0.000E+00  0.000E+00  0.000E+00  1.07264E+03  1.727E+00  8.909E+00  6.682E-02  1.864E+00
   1    3    7     3     3    1.4684E+00  1.9718E-01   1.2712E+00  0.000E+00  0.000E+00  0.000E+00  1.06987E+03  1.555E+00  8.218E+00  5.547E-02  1.777E+00
   1    4    8     3     4    1.2712E+00  2.2567E-01   1.0456E+00  0.000E+00  0.000E+00  0.000E+00  1.06682E+03  1.364E+00  7.455E+00  6.709E-02  1.682E+00
   1    5    8     3     5    1.0456E+00  1.5790E-01   8.8768E-01  0.000E+00  0.000E+00  0.000E+00  1.06362E+03  1.164E+00  6.655E+00  4.991E-02  1.582E+00
   1    6    8     3     6    8.8768E-01  5.5980E-02   8.3170E-01  0.000E+00  0.000E+00  0.000E+00  1.06158E+03  1.036E+00  6.145E+00  1.844E-02  1.518E+00
   1    5   10     4     1    1.0000E+01  9.0919E-02   9.9091E+00  0.000E+00  0.000E+00  0.000E+00  1.07836E+03  6.368E-01  1.000E+01  2.500E-02  1.212E+00
   1    5    9     4     2    9.9091E+00  1.8158E-01   9.7275E+00  0.000E+00  0.000E+00  0.000E+00  1.07154E+03  6.315E-01  1.000E+01  5.000E-02  1.211E+00
   1    6    8     4     3    9.7275E+00  1.2689E-01   9.6006E+00  0.000E+00  0.000E+00  0.000E+00  1.06381E+03  6.256E-01  1.000E+01  3.500E-02  1.209E+00
   1    6    8     5     1    1.0432E+01  2.2686E-01   1.0205E+01  0.000E+00  0.000E+00  0.000E+00  1.05868E+03  6.790E-01  1.542E+01  6.166E-02  1.226E+00
   1    7    7     5     2    1.0205E+01  2.7894E-01   9.9265E+00  0.000E+00  0.000E+00  0.000E+00  1.05417E+03  6.732E-01  1.519E+01  7.594E-02  1.224E+00
   1    8    7     5     3    9.9265E+00  1.9221E-01   9.7343E+00  0.000E+00  0.000E+00  0.000E+00  1.04992E+03  6.676E-01  1.497E+01  5.241E-02  1.223E+00
   1    8    6     5     4    9.7343E+00  1.3577E-01   9.5985E+00  0.000E+00  0.000E+00  0.000E+00  1.04691E+03  6.637E-01  1.482E+01  3.706E-02  1.221E+00
   1    9    6     6     1    2.5232E+01  2.5345E-01   2.4979E+01  0.000E+00  0.000E+00  0.000E+00  1.04395E+03  1.224E+00  1.200E+01  6.000E-02  1.408E+00
   1   10    7     6     2    2.4979E+01  2.5300E-01   2.4726E+01  0.000E+00  0.000E+00  0.000E+00  1.03940E+03  1.217E+00  1.200E+01  6.000E-02  1.406E+00
   1   11    7     6     3    2.4726E+01  2.5256E-01   2.4473E+01  0.000E+00  0.000E+00  0.000E+00  1.03485E+03  1.209E+00  1.200E+01  6.000E-02  1.403E+00
   1   12    7     6     4    2.4473E+01  2.5211E-01   2.4221E+01  0.000E+00  0.000E+00  0.000E+00  1.03029E+03  1.202E+00  1.200E+01  6.000E-02  1.401E+00
   1   13    7     6     5    2.4221E+01  1.8824E-03   2.4219E+01  0.000E+00  0.000E+00  0.000E+00  1.02711E+03  1.198E+00  1.200E+01  2.400E-02  2.614E-02
   1   14    9     7     1    1.5000E+02  1.3369E+00   1.4866E+02  0.000E+00  0.000E+00  0.000E+00  1.03987E+03  2.288E+00  5.529E+01  5.593E-01  7.968E-01
   1   13    8     7     2    1.4866E+02  1.8455E+00   1.4682E+02  0.000E+00  0.000E+00  0.000E+00  1.03478E+03  2.279E+00  5.526E+01  6.148E-01  1.001E+00
   1   13    7     7     3    1.4682E+02  1.4860E+00   1.4533E+02  0.000E+00  0.000E+00  0.000E+00  1.02969E+03  2.270E+00  5.522E+01  5.584E-01  8.870E-01
   1   13    6     8     1    1.6955E+02  9.3977E-01   1.6861E+02  0.000E+00  0.000E+00  0.000E+00  1.02482E+03  2.946E+00  4.272E+01  4.353E-01  7.196E-01
   1   13    5     8     2    1.6861E+02  1.9171E-01   1.6842E+02  0.000E+00  0.000E+00  0.000E+00  1.01857E+03  2.943E+00  4.267E+01  4.348E-01  1.470E-01
   1   13    4     8     3    1.6842E+02 -2.4040E+00   1.7082E+02  0.000E+00  0.000E+00  0.000E+00  1.01232E+03  2.950E+00  4.277E+01  4.359E+00 -1.839E-01
   1   13    3     8     4    1.7082E+02 -3.6319E+00   1.7446E+02  0.000E+00  0.000E+00  0.000E+00  1.00609E+03  2.969E+00  4.305E+01  4.387E+00 -2.759E-01
   1   13    2     8     5    1.7446E+02 -2.5689E+00   1.7702E+02  0.000E+00  0.000E+00  0.000E+00  9.99864E+02  2.989E+00  4.334E+01  4.417E+00 -1.939E-01
   1   13    1     8     6    1.7702E+02 -1.9721E+00   1.7900E+02  0.000E+00  0.000E+00  0.000E+00  9.94879E+02  3.004E+00  4.355E+01  2.663E+00 -2.469E-01





UNSATURATED ZONE PACKAGE VOLUMETRIC BUDGET FOR  TIME STEP    30 STRESS PERIOD   25
  ------------------------------------------------------------------------------



     CUMULATIVE VOLUMES      L**3       RATES FOR THIS TIME STEP      L**3/T
     ------------------                 ------------------------

           IN:                                      IN:
           ---                                      ---
        INFILTRATION =   372117556.3597          INFILTRATION =           0.8475

          OUT:                                     OUT:
          ----                                     ----
              UZF ET =   197391480.5843                UZF ET =           0.0326
        UZF RECHARGE =    11434035.3362          UZF RECHARGE =           0.0341

            IN - OUT =   163292040.4392              IN - OUT =           0.7809

          STORAGE:                                 STORAGE:
          --------                                 --------
      STORAGE CHANGE =   163415502.8163        STORAGE CHANGE =           0.7809

 PERCENT DISCREPANCY IS DIFFERENCE BETWEEN IN-OUT MINUS CHANGE IN STORAGE
 DIVIDED BY THE AVERAGE OF IN AND OUT TIMES 100

 PERCENT DISCREPANCY =          -0.01     PERCENT DISCREPANCY =          -0.00






1
  VOLUMETRIC BUDGET FOR ENTIRE MODEL AT END OF TIME STEP   30, STRESS PERIOD  25
  ------------------------------------------------------------------------------

     CUMULATIVE VOLUMES      L**3       RATES FOR THIS TIME STEP      L**3/T
     ------------------                 ------------------------

           IN:                                      IN:
           ---                                      ---
               AWU WELLS =   318590336.0000                 AWU WELLS =           0.0000
      DIVERSION SEGMENTS =           0.0000        DIVERSION SEGMENTS =           0.0000
           GW IRRIGATION =           0.0000             GW IRRIGATION =           0.0000
           SW IRRIGATION =           0.0000             SW IRRIGATION =           0.0000
        SYSTEM LOSSES GW =           0.0000          SYSTEM LOSSES GW =           0.0000
        SYSTEM LOSSES SW =           0.0000          SYSTEM LOSSES SW =           0.0000

                TOTAL IN =   318590336.0000                  TOTAL IN =           0.0000

          OUT:                                     OUT:
          ----                                     ----
               AWU WELLS =           0.0000                 AWU WELLS =           0.0000
      DIVERSION SEGMENTS =           0.0000        DIVERSION SEGMENTS =           0.0000
           GW IRRIGATION =   318590336.0000             GW IRRIGATION =           0.0000
           SW IRRIGATION =           0.0000             SW IRRIGATION =           0.0000
        SYSTEM LOSSES GW =           0.0000          SYSTEM LOSSES GW =           0.0000
        SYSTEM LOSSES SW =           0.0000          SYSTEM LOSSES SW =           0.0000

               TOTAL OUT =   318590336.0000                 TOTAL OUT =           0.0000

                IN - OUT =           0.0000                  IN - OUT =           0.0000

     PERCENT DISCREPANCY =           0.00         PERCENT DISCREPANCY =           0.00



1
  VOLUMETRIC BUDGET FOR ENTIRE MODEL AT END OF TIME STEP   30, STRESS PERIOD  25
  ------------------------------------------------------------------------------

     CUMULATIVE VOLUMES      L**3       RATES FOR THIS TIME STEP      L**3/T
     ------------------                 ------------------------

           IN:                                      IN:
           ---                                      ---
             STORAGE     =   552214592.0000               STORAGE     =           2.5746
       CONSTANT HEAD     =           0.0000         CONSTANT HEAD     =           0.0000
     HEAD DEP BOUNDS     =    18042054.0000       HEAD DEP BOUNDS     =           0.2858
      STREAM LEAKAGE     =   793620608.0000        STREAM LEAKAGE     =          11.5806
        UZF RECHARGE     =    11434036.0000          UZF RECHARGE     =       3.4062E-02
               GW ET     =           0.0000                 GW ET     =           0.0000
     SURFACE LEAKAGE     =           0.0000       SURFACE LEAKAGE     =           0.0000
           AWU WELLS     =           0.0000             AWU WELLS     =           0.0000

                TOTAL IN =  1375311232.0000                  TOTAL IN =          14.4752

          OUT:                                     OUT:
          ----                                     ----
             STORAGE     =   333397728.0000               STORAGE     =           3.5993
       CONSTANT HEAD     =           0.0000         CONSTANT HEAD     =           0.0000
     HEAD DEP BOUNDS     =    18290450.0000       HEAD DEP BOUNDS     =           0.2895
      STREAM LEAKAGE     =   594112960.0000        STREAM LEAKAGE     =          10.5769
        UZF RECHARGE     =           0.0000          UZF RECHARGE     =           0.0000
               GW ET     =   110924856.0000                 GW ET     =       9.6005E-03
     SURFACE LEAKAGE     =           0.0000       SURFACE LEAKAGE     =           0.0000
           AWU WELLS     =   318590336.0000             AWU WELLS     =           0.0000

               TOTAL OUT =  1375316352.0000                 TOTAL OUT =          14.4754

                IN - OUT =       -5120.0000                  IN - OUT =      -2.1076E-04

     PERCENT DISCREPANCY =          -0.00         PERCENT DISCREPANCY =          -0.00






         TIME SUMMARY AT END OF TIME STEP   30 IN STRESS PERIOD   25
                    SECONDS     MINUTES      HOURS       DAYS        YEARS
                    -----------------------------------------------------------
   TIME STEP LENGTH  87600.      1460.0      24.333      1.0139     2.77588E-03
 STRESS PERIOD TIME 2.62800E+06  43800.      730.00      30.417     8.32763E-02
         TOTAL TIME 6.31584E+07 1.05264E+06  17544.      731.00      2.0014    
1

 Run end date and time (yyyy/mm/dd hh:mm:ss): 2018/08/28 12:20:03
 Elapsed run time:  5.067 Seconds

