                                  MODFLOW-NWT-SWR1 
      U.S. GEOLOGICAL SURVEY MODULAR FINITE-DIFFERENCE GROUNDWATER-FLOW MODEL
                            VERSION 1.1.3, 8/01/2017
                    BASED ON MODFLOW-2005 VERSION 1.11.00 08/08/2013

 LIST FILE: .\Uzf_testoptions\UZFtestoptions.lst
                         UNIT    9

 OPENING .\Uzf_testoptions\UZFtestoptions.ba6
 FILE TYPE:BAS6   UNIT   75   STATUS:OLD    
 FORMAT:FORMATTED              ACCESS:SEQUENTIAL          

 OPENING .\Uzf_testoptions\UZFtestoptions.upw
 FILE TYPE:UPW   UNIT    7   STATUS:OLD    
 FORMAT:FORMATTED              ACCESS:SEQUENTIAL          

 OPENING .\Uzf_testoptions\UZFtestoptions.dis
 FILE TYPE:DIS   UNIT    8   STATUS:OLD    
 FORMAT:FORMATTED              ACCESS:SEQUENTIAL          

 OPENING .\Uzf_testoptions\UZFtestoptions.nwt
 FILE TYPE:NWT   UNIT   13   STATUS:OLD    
 FORMAT:FORMATTED              ACCESS:SEQUENTIAL          

 OPENING .\Uzf_testoptions\UZFtestoptions.oc
 FILE TYPE:OC   UNIT   14   STATUS:OLD    
 FORMAT:FORMATTED              ACCESS:SEQUENTIAL          

 OPENING .\Uzf_testoptions\UZFtestoptions.sfr
 FILE TYPE:SFR   UNIT   15   STATUS:OLD    
 FORMAT:FORMATTED              ACCESS:SEQUENTIAL          

 OPENING .\Uzf_testoptions\UZFtestoptions.wel
 FILE TYPE:WEL   UNIT   16   STATUS:OLD    
 FORMAT:FORMATTED              ACCESS:SEQUENTIAL          

 OPENING .\Uzf_testoptions\UZFtestoptions.ghb
 FILE TYPE:GHB   UNIT   17   STATUS:OLD    
 FORMAT:FORMATTED              ACCESS:SEQUENTIAL          

 OPENING .\Uzf_testoptions\UZFtestoptions.uzf
 FILE TYPE:UZF   UNIT   19   STATUS:OLD    
 FORMAT:FORMATTED              ACCESS:SEQUENTIAL          

 OPENING .\Uzf_testoptions\UZFtestoptions.gag
 FILE TYPE:GAGE   UNIT   32   STATUS:OLD    
 FORMAT:FORMATTED              ACCESS:SEQUENTIAL          

 OPENING .\Uzf_testoptions\UZFtestoptions.out
 FILE TYPE:DATA   UNIT   58   STATUS:UNKNOWN
 FORMAT:FORMATTED              ACCESS:SEQUENTIAL          

 OPENING .\Uzf_testoptions\UZFtestoptions.uzfot
 FILE TYPE:DATA(BINARY)   UNIT   61   STATUS:UNKNOWN
 FORMAT:BINARY                 ACCESS:SEQUENTIAL          

 OPENING .\Uzf_testoptions\netfluxin.unf
 FILE TYPE:DATA(BINARY)   UNIT  100   STATUS:UNKNOWN
 FORMAT:BINARY                 ACCESS:SEQUENTIAL          

 OPENING .\Uzf_testoptions\netfluxout.unf
 FILE TYPE:DATA(BINARY)   UNIT  101   STATUS:UNKNOWN
 FORMAT:BINARY                 ACCESS:SEQUENTIAL          

 OPENING .\Uzf_testoptions\UZFtestoptions.uzf1
 FILE TYPE:DATA   UNIT   65   STATUS:UNKNOWN
 FORMAT:FORMATTED              ACCESS:SEQUENTIAL          

 OPENING .\Uzf_testoptions\UZFtestoptions.uzf2
 FILE TYPE:DATA   UNIT   66   STATUS:UNKNOWN
 FORMAT:FORMATTED              ACCESS:SEQUENTIAL          

 OPENING .\Uzf_testoptions\UZFtestoptions.uzf3
 FILE TYPE:DATA   UNIT   67   STATUS:UNKNOWN
 FORMAT:FORMATTED              ACCESS:SEQUENTIAL          

 OPENING .\Uzf_testoptions\UZFtestoptions.uzf4
 FILE TYPE:DATA   UNIT   68   STATUS:UNKNOWN
 FORMAT:FORMATTED              ACCESS:SEQUENTIAL          

 OPENING .\Uzf_testoptions\UZFtestoptions.flw
 FILE TYPE:DATA   UNIT   81   STATUS:UNKNOWN
 FORMAT:FORMATTED              ACCESS:SEQUENTIAL          

 OPENING .\Uzf_testoptions\UZFtestoptions.sg1
 FILE TYPE:DATA   UNIT   83   STATUS:UNKNOWN
 FORMAT:FORMATTED              ACCESS:SEQUENTIAL          

 OPENING .\Uzf_testoptions\UZFtestoptions.sg2
 FILE TYPE:DATA   UNIT   84   STATUS:UNKNOWN
 FORMAT:FORMATTED              ACCESS:SEQUENTIAL          

 OPENING .\Uzf_testoptions\UZFtestoptions.sg3
 FILE TYPE:DATA   UNIT   85   STATUS:UNKNOWN
 FORMAT:FORMATTED              ACCESS:SEQUENTIAL          

 OPENING .\Uzf_testoptions\UZFtestoptions.sg4
 FILE TYPE:DATA   UNIT   86   STATUS:UNKNOWN
 FORMAT:FORMATTED              ACCESS:SEQUENTIAL          

 OPENING .\Uzf_testoptions\UZFtestoptions.sg5
 FILE TYPE:DATA   UNIT   87   STATUS:UNKNOWN
 FORMAT:FORMATTED              ACCESS:SEQUENTIAL          

 OPENING .\Uzf_testoptions\UZFtestoptions.sg6
 FILE TYPE:DATA   UNIT   88   STATUS:UNKNOWN
 FORMAT:FORMATTED              ACCESS:SEQUENTIAL          

 OPENING .\Uzf_testoptions\UZFtestoptions.sg7
 FILE TYPE:DATA   UNIT   89   STATUS:UNKNOWN
 FORMAT:FORMATTED              ACCESS:SEQUENTIAL          

 OPENING .\Uzf_testoptions\UZFtestoptions.sg8
 FILE TYPE:DATA   UNIT   90   STATUS:UNKNOWN
 FORMAT:FORMATTED              ACCESS:SEQUENTIAL          

 OPENING .\Uzf_testoptions\UZFtestoptions.sg9
 FILE TYPE:DATA   UNIT   91   STATUS:UNKNOWN
 FORMAT:FORMATTED              ACCESS:SEQUENTIAL          

 BAS -- BASIC PACKAGE, VERSION 1.1.3, 8/01/2017 INPUT READ FROM UNIT   75
 
 MODFLOW was compiled using mixed precision
 Precision of REAL variables:           6
 Precision of DOUBLE PRECISION variables:          15

 DISCRETIZATION INPUT DATA READ FROM UNIT    8
 #Test problem 2-- Discretization input
 #Example problem using the UZF1 Package
    1 LAYERS        15 ROWS        10 COLUMNS
   12 STRESS PERIOD(S) IN SIMULATION
 MODEL TIME UNIT IS SECONDS
 MODEL LENGTH UNIT IS FEET
  Confining bed flag for each layer:
   0

                     DELR =   5000.00    

                     DELC =   5000.00    



           TOP ELEVATION OF LAYER 1
 READING ON UNIT    8 WITH FORMAT: (10F7.0)            

            1           2           3           4           5           6           7           8           9          10
 ........................................................................................................................
   1    1105.       1105.       0.000       0.000       0.000       0.000       0.000       0.000       0.000       0.000    
   2    1105.       1095.       1105.       0.000       0.000       1100.       1100.       1110.       0.000       0.000    
   3    0.000       1100.       1085.       1080.       1078.       1076.       1073.       1090.       0.000       0.000    
   4    1110.       1100.       1090.       1085.       1076.       1080.       1080.       1070.       1100.       0.000    
   5    1110.       1100.       1085.       1080.       1078.       1074.       1077.       1066.       1075.       1080.    
   6    1105.       1095.       1080.       1077.       1073.       1069.       1070.       1063.       1085.       1095.    
   7    1105.       1090.       1075.       1072.       1070.       1065.       1065.       1069.       1090.       0.000    
   8    0.000       1080.       1070.       1068.       1063.       1060.       1063.       1067.       1090.       0.000    
   9    0.000       1075.       1065.       1062.       1058.       1052.       1055.       1065.       1090.       0.000    
  10    0.000       1070.       1060.       1055.       1046.       1046.       1044.       1060.       1088.       1100.    
  11    0.000       1055.       1050.       1045.       1041.       1042.       1040.       1050.       1075.       0.000    
  12    1027.       1028.       1028.       1032.       1032.       1033.       1032.       1040.       1060.       0.000    
  13    997.0       1004.       1008.       1014.       1020.       1027.       1032.       1038.       1050.       0.000    
  14    0.000       1030.       1040.       1045.       1050.       1050.       1050.       1050.       1044.       0.000    
  15    0.000       0.000       1080.       1080.       1080.       1080.       0.000       0.000       0.000       0.000    



             MODEL LAYER BOTTOM EL. FOR LAYER   1
 READING ON UNIT    8 WITH FORMAT: (10F7.0)            

            1           2           3           4           5           6           7           8           9          10
 ........................................................................................................................
   1    1000.       1000.       0.000       0.000       0.000       0.000       0.000       0.000       0.000       0.000    
   2    1000.       900.0       900.0       0.000       0.000       950.0       950.0       950.0       0.000       0.000    
   3    0.000       850.0       670.0       680.0       680.0       770.0       770.0       890.0       0.000       0.000    
   4    925.0       850.0       650.0       650.0       650.0       680.0       740.0       850.0       950.0       0.000    
   5    925.0       800.0       650.0       600.0       600.0       600.0       650.0       720.0       850.0       950.0    
   6    925.0       800.0       650.0       600.0       550.0       600.0       650.0       720.0       850.0       970.0    
   7    925.0       800.0       650.0       600.0       550.0       600.0       650.0       720.0       950.0       0.000    
   8    0.000       850.0       700.0       650.0       570.0       600.0       700.0       850.0       950.0       0.000    
   9    0.000       850.0       700.0       650.0       540.0       580.0       700.0       850.0       950.0       0.000    
  10    0.000       850.0       700.0       630.0       530.0       580.0       650.0       800.0       900.0       950.0    
  11    0.000       850.0       700.0       620.0       580.0       620.0       700.0       800.0       900.0       0.000    
  12    900.0       830.0       710.0       640.0       600.0       650.0       700.0       800.0       900.0       0.000    
  13    900.0       810.0       750.0       700.0       650.0       700.0       750.0       800.0       900.0       0.000    
  14    0.000       950.0       850.0       850.0       850.0       850.0       850.0       850.0       850.0       0.000    
  15    0.000       0.000       950.0       950.0       950.0       950.0       0.000       0.000       0.000       0.000    


 STRESS PERIOD     LENGTH       TIME STEPS     MULTIPLIER FOR DELT    SS FLAG
 ----------------------------------------------------------------------------
        1         2628000.          1                    1.000         SS
        2         2628000.         15                    1.100         TR
        3         2628000.         15                    1.100         TR
        4         2628000.         15                    1.100         TR
        5         2628000.         15                    1.100         TR
        6         2628000.         15                    1.100         TR
        7         2628000.         15                    1.100         TR
        8         2628000.         15                    1.100         TR
        9         2628000.         15                    1.100         TR
       10         2628000.         15                    1.100         TR
       11         2628000.         15                    1.100         TR
       12         2628000.         15                    1.100         TR

 COMBINED STEADY-STATE AND TRANSIENT SIMULATION



 
 #Test Simulation 2-- Example problem using the UZF1 Package                     
 #Modified from example Problem 1 of SFR1 documentation report                   
 THE FREE FORMAT OPTION HAS BEEN SELECTED



                     BOUNDARY ARRAY FOR LAYER   1
 READING ON UNIT   75 WITH FORMAT: (20I4)              

                1           2           3           4           5           6           7           8           9          10
 ............................................................................................................................
   1            1           1           0           0           0           0           0           0           0           0
   2            1           1           1           0           0           1           1           1           0           0
   3            0           1           1           1           1           1           1           1           0           0
   4            1           1           1           1           1           1           1           1           1           0
   5            1           1           1           1           1           1           1           1           1           1
   6            1           1           1           1           1           1           1           1           1           1
   7            1           1           1           1           1           1           1           1           1           0
   8            0           1           1           1           1           1           1           1           1           0
   9            0           1           1           1           1           1           1           1           1           0
  10            0           1           1           1           1           1           1           1           1           1
  11            0           1           1           1           1           1           1           1           1           0
  12            1           1           1           1           1           1           1           1           1           0
  13            1           1           1           1           1           1           1           1           1           0
  14            0           1           1           1           1           1           1           1           1           0
  15            0           0           1           1           1           1           0           0           0           0

 AQUIFER HEAD WILL BE SET TO   6999.0     AT ALL NO-FLOW NODES (IBOUND=0).



                       INITIAL HEAD FOR LAYER   1
 READING ON UNIT   75 WITH FORMAT: (10F8.0)            

            1           2           3           4           5           6           7           8           9          10
 ........................................................................................................................
   1    1093.       1089.       6999.       6999.       6999.       6999.       6999.       6999.       6999.       6999.    
   2    1090.       1087.       1081.       6999.       6999.       1072.       1071.       1071.       6999.       6999.    
   3    6999.       1079.       1078.       1074.       1072.       1071.       1069.       1068.       6999.       6999.    
   4    1069.       1071.       1070.       1067.       1065.       1064.       1064.       1066.       1066.       6999.    
   5    1065.       1064.       1063.       1062.       1061.       1061.       1060.       1062.       1066.       1068.    
   6    1060.       1058.       1057.       1056.       1056.       1057.       1057.       1059.       1062.       1066.    
   7    1056.       1053.       1052.       1051.       1051.       1052.       1053.       1055.       1056.       6999.    
   8    6999.       1046.       1046.       1046.       1046.       1046.       1048.       1050.       1050.       6999.    
   9    6999.       1039.       1039.       1039.       1040.       1041.       1042.       1043.       1044.       6999.    
  10    6999.       1031.       1032.       1033.       1034.       1035.       1037.       1038.       1039.       1042.    
  11    6999.       1021.       1023.       1027.       1029.       1030.       1032.       1034.       1036.       6999.    
  12    1001.       1009.       1015.       1020.       1023.       1026.       1029.       1030.       1034.       6999.    
  13    994.5      1000.0       1007.       1013.       1019.       1024.       1029.       1034.       1036.       6999.    
  14    6999.       1004.       1009.       1014.       1019.       1024.       1029.       1035.       1039.       6999.    
  15    6999.       6999.       1012.       1015.       1019.       1022.       6999.       6999.       6999.       6999.    

 OUTPUT CONTROL IS SPECIFIED ONLY AT TIME STEPS FOR WHICH OUTPUT IS DESIRED
 HEADS WILL BE SAVED WITH FORMAT: (10F10.3)           
 SAVED HEADS WILL BE LABELED
 HEAD PRINT FORMAT CODE IS   4    DRAWDOWN PRINT FORMAT CODE IS   0
 HEADS WILL BE SAVED ON UNIT   58    DRAWDOWNS WILL BE SAVED ON UNIT    0
 # NWT Input File
 # Test Problem 3 for MODFLOW-NWT
 #HEADTOL  FLUXTOL MAXITEROUT THICKFACT LINMETH IPRNWT IBOTAV OPTIONS DBDREDUCE DBDINCREASE DBDGAMMA MOMFACT BACKFLAG MAXBACKITER BACKTOL BACKREDUCE

 NWT1 -- Newton Solver, VERSION 1.1.3, 8/01/2017
         INPUT READ FROM UNIT 13

 SPECIFIED OPTION:
 SOLVER INPUT VALUES ARE SPECIFIED BY USER
 ***XMD linear solver will be used***
 
   CONVERGENCE CRITERION OF   0.100000E-03 FOR HEAD SOLUTION
   AND A TOLERANCE OF   0.100000E+03 FOR FLOW SOLUTION AND 
   A MAXIMUM OF   200 OUTER ITERATIONS. 


   D-B-D REDUCTION FACTOR OF    0.990000E+00 AND 
   A D-B-D INCREASE FACTOR OF    0.100000E-04 AND 
   A D-B-D RELAXATION OF    0.000000E+00 AND 
   A MOMENTUM FACTOR OF    0.100000E+00 .


 ***BACKTRACKING IS INACTIVE***
 XMD -- LINEAR SOLUTION BY XMD PACKAGE VERSION 1.30
     BY MOTOMU IBARAKI, OHIO STATE UNIVERSITY, COLOMBUS, OH
                 INPUT READ FROM UNIT 13
 ACCELERATION METHOD                    (IACL) =         2
 NODE ORDERING FLAG                   (NORDER) =         0
 LEVEL OF FILL                         (LEVEL) =         1
 MAXIMUM NUMBER OF ORTHOGONALIZATIONS  (NORTH) =        15
 INDEX FOR USING REDUCED SYSTEM      (IREDSYS) =         1
 RESID. REDUCTION CONVERGE CRITERION  (RRCTOL) =  0.000000E+00
 INDEX FOR USING DROP TOLERANCE     (IDROPTOL) =         1
 DROP TOLERANCE VALUE                  (EPSRN) =  0.500000E-02
 CONVERGENCE CRITERIA OF           (HCLOSEXMD) =  0.100000E-03
 MAX. NUMBER OF LINEAR ITERATIONS  (MXITERXMD) =        50


 UPW1 -- UPSTREAM WEIGHTING FLOW PACKAGE, VERSION 1.1.3, 8/01/2017
         INPUT READ FROM UNIT  7

 #Layer-Property Flow Package input for test simulation 2
 No named parameters

   LAYER FLAGS:
 LAYER       LAYTYP          LAYAVG    CHANI           LAYVKA           LAYWET
 ---------------------------------------------------------------------------
    1             1             0     1.000E+00             0             0

   INTERPRETATION OF LAYER FLAGS:
                        INTERBLOCK     HORIZONTAL    DATA IN
         LAYER TYPE   TRANSMISSIVITY   ANISOTROPY   ARRAY VKA   WETTABILITY
 LAYER   (LAYTYP)        (LAYAVG)      (CHANI)     (LAYVKA)       (LAYWET)
 ---------------------------------------------------------------------------
    1   CONVERTIBLE      HARMONIC     1.000E+00    VERTICAL K  NON-WETTABLE



              HYD. COND. ALONG ROWS FOR LAYER   1
 READING ON UNIT    7 WITH FORMAT: (10F5.0)            

            1           2           3           4           5           6           7           8           9          10
 ........................................................................................................................
   1   2.0000E-03  2.0000E-03   0.000       0.000       0.000       0.000       0.000       0.000       0.000       0.000    
   2   4.0000E-04  2.0000E-03  2.0000E-03   0.000       0.000      4.0000E-04  4.0000E-04  4.0000E-04   0.000       0.000    
   3    0.000      4.0000E-04  2.0000E-03  2.0000E-03  4.0000E-04  4.0000E-04  4.0000E-04  4.0000E-04   0.000       0.000    
   4   4.0000E-04  4.0000E-04  4.0000E-04  2.0000E-03  2.0000E-03  2.0000E-03  4.0000E-04  4.0000E-04  4.0000E-04   0.000    
   5   4.0000E-04  4.0000E-04  4.0000E-04  2.0000E-03  2.0000E-03  2.0000E-03  2.0000E-03  2.0000E-03  2.0000E-03  2.0000E-03
   6   4.0000E-04  4.0000E-04  4.0000E-04  2.0000E-03  2.0000E-03  2.0000E-03  2.0000E-03  2.0000E-03  4.0000E-04  4.0000E-04
   7   4.0000E-04  4.0000E-04  4.0000E-04  2.0000E-03  2.0000E-03  2.0000E-03  2.0000E-03  2.0000E-03  4.0000E-04   0.000    
   8    0.000      4.0000E-04  4.0000E-04  2.0000E-03  2.0000E-03  2.0000E-03  2.0000E-03  4.0000E-04  4.0000E-04   0.000    
   9    0.000      4.0000E-04  4.0000E-04  2.0000E-03  2.0000E-03  2.0000E-03  2.0000E-03  4.0000E-04  4.0000E-04   0.000    
  10    0.000      4.0000E-04  4.0000E-04  2.0000E-03  2.0000E-03  2.0000E-03  2.0000E-03  4.0000E-04  4.0000E-04  4.0000E-04
  11    0.000      4.0000E-04  4.0000E-04  2.0000E-03  2.0000E-03  2.0000E-03  2.0000E-03  4.0000E-04  4.0000E-04   0.000    
  12   4.0000E-04  4.0000E-04  2.0000E-03  2.0000E-03  2.0000E-03  2.0000E-03  2.0000E-03  4.0000E-04  4.0000E-04   0.000    
  13   2.0000E-03  2.0000E-03  2.0000E-03  2.0000E-03  2.0000E-03  2.0000E-03  2.0000E-03  2.0000E-03  2.0000E-03   0.000    
  14    0.000      4.0000E-04  4.0000E-04  4.0000E-04  4.0000E-04  4.0000E-04  4.0000E-04  4.0000E-04  2.0000E-03   0.000    
  15    0.000       0.000      4.0000E-04  4.0000E-04  4.0000E-04  4.0000E-04   0.000       0.000       0.000       0.000    

      VERTICAL HYD. COND. =  1.000000E-06 FOR LAYER   1

         SPECIFIC STORAGE =  1.000000E-06 FOR LAYER   1



                     SPECIFIC YIELD FOR LAYER   1
 READING ON UNIT    7 WITH FORMAT: (10F5.0)            

            1           2           3           4           5           6           7           8           9          10
 ........................................................................................................................
   1   0.2000      0.2000       0.000       0.000       0.000       0.000       0.000       0.000       0.000       0.000    
   2   0.1000      0.2000      0.2000       0.000       0.000      0.1000      0.1000      0.1000       0.000       0.000    
   3    0.000      0.1000      0.2000      0.2000      0.1000      0.1000      0.1000      0.1000       0.000       0.000    
   4   0.1000      0.1000      0.1000      0.2000      0.2000      0.2000      0.1000      0.1000      0.1000       0.000    
   5   0.1000      0.1000      0.1000      0.2000      0.2000      0.2000      0.2000      0.2000      0.2000      0.2000    
   6   0.1000      0.1000      0.1000      0.2000      0.2000      0.2000      0.2000      0.2000      0.1000      0.1000    
   7   0.1000      0.1000      0.1000      0.2000      0.2000      0.2000      0.2000      0.2000      0.1000       0.000    
   8    0.000      0.1000      0.1000      0.2000      0.2000      0.2000      0.2000      0.1000      0.1000       0.000    
   9    0.000      0.1000      0.1000      0.2000      0.2000      0.2000      0.2000      0.1000      0.1000       0.000    
  10    0.000      0.1000      0.1000      0.2000      0.2000      0.2000      0.2000      0.1000      0.1000      0.1000    
  11    0.000      0.1000      0.1000      0.2000      0.2000      0.2000      0.2000      0.1000      0.1000       0.000    
  12   0.1000      0.1000      0.2000      0.2000      0.2000      0.2000      0.2000      0.1000      0.1000       0.000    
  13   0.2000      0.2000      0.2000      0.2000      0.2000      0.2000      0.2000      0.2000      0.2000       0.000    
  14    0.000      0.1000      0.1000      0.1000      0.1000      0.1000      0.1000      0.1000      0.2000       0.000    
  15    0.000       0.000      0.1000      0.1000      0.1000      0.1000       0.000       0.000       0.000       0.000    

 WEL -- WELL PACKAGE FOR NWT VERSION 1.1.2,  9/15/2016 INPUT READ FROM UNIT   16
 #Well Package input for test simulation 2
 No named parameters
 MAXIMUM OF     10 ACTIVE WELLS AT ONE TIME
 CELL-BY-CELL FLOWS WILL BE PRINTED WHEN ICBCFL NOT 0
 No named parameters
  PHIRAMP WILL BE SET TO A DEFAULT VALUE OF 1.0E-5
  WELLS WITH REDUCED PUMPING WILL BE REPORTED TO THE MAIN LISTING FILE


     0 Well parameters

 GHB -- GENERAL-HEAD BOUNDARY PACKAGE, VERSION 7, 5/2/2005
         INPUT READ FROM UNIT   17
 No named parameters
 MAXIMUM OF      2 ACTIVE GHB CELLS AT ONE TIME
 CELL-BY-CELL FLOWS WILL BE PRINTED WHEN ICBCFL NOT 0


     0 GHB parameters

 SFR7 -- STREAMFLOW ROUTING PACKAGE, VERSION 1.0.5, 2012-04-05
         INPUT READ FROM UNIT  15
 #SFR2 Package input for Test Simulation 2
 No named parameters

 PROCESSING SFR2 OPTIONS
 
 
Stream loss will be calculated as a factor of the streambed hydraulic conductivity. Multiplication factor is equal to     0.1000000015E+00

 END PROCESSING SFR2 OPTIONS
 


 NUMBER OF STREAM REACHES IS   36

 NUMBER OF STREAM SEGMENTS IS    8

 NUMBER OF STREAM PARAMETERS IS    0

 NUMBER OF STREAM SEGMENTS DEFINED USING PARAMETERS IS              0

 MAXIMUM ERROR FOR STREAM LEAKAGE RATES IS  1.00E-06

 CONSTANT FOR MANNINGS EQUATION IS  1.4860E+00



 STREAM OUTPUT WILL BE WRITTEN TO FILE ON UNIT   81


   STREAM NETWORK DESCRIPTION: 

   LAYER    ROW    COL   SEGMENT   REACH     LENGTH
                          NUMBER   NUMBER    IN CELL        
   --------------------------------------------------
      1      1      1       1        1    4.5000E+03
      1      2      2       1        2    7.0000E+03
      1      3      3       1        3    6.0000E+03
      1      3      4       1        4    5.5500E+03
      1      4      5       2        1    6.5000E+03
      1      5      6       2        2    5.0000E+03
      1      6      6       2        3    5.0000E+03
      1      7      6       2        4    5.0000E+03
      1      8      6       2        5    5.0000E+03
      1      3      5       3        1    5.0000E+03
      1      3      6       3        2    5.0000E+03
      1      3      7       3        3    4.5000E+03
      1      4      8       3        4    6.0000E+03
      1      5      8       3        5    5.0000E+03
      1      6      8       3        6    2.0000E+03
      1      5     10       4        1    2.5000E+03
      1      5      9       4        2    5.0000E+03
      1      6      8       4        3    3.5000E+03
      1      6      8       5        1    4.0000E+03
      1      7      7       5        2    5.0000E+03
      1      8      7       5        3    3.5000E+03
      1      8      6       5        4    2.5000E+03
      1      9      6       6        1    5.0000E+03
      1     10      7       6        2    5.0000E+03
      1     11      7       6        3    5.0000E+03
      1     12      7       6        4    5.0000E+03
      1     13      7       6        5    2.0000E+03
      1     14      9       7        1    5.0000E+03
      1     13      8       7        2    5.5000E+03
      1     13      7       7        3    5.0000E+03
      1     13      6       8        1    5.0000E+03
      1     13      5       8        2    5.0000E+03
      1     13      4       8        3    5.0000E+03
      1     13      3       8        4    5.0000E+03
      1     13      2       8        5    5.0000E+03
      1     13      1       8        6    3.0000E+03




 UZF1 -- UNSATURATED FLOW PACKAGE, VERSION 1.4, 02/06/2012
         INPUT READ FROM UNIT 19
 #UZF Package input for test simulation 2
 No named parameters

 PROCESSING UZF OPTIONS
 
 
 INITIAL WATER CONTENT (THTI) WILL BE 
READ FOR THE FIRST SS OR TR STRESS PERIOD
 
 
 RESIDUAL WATER CONTENT (THTR) WILL BE 
READ AND USED FOR THE FIRST TRANSIENT STRESS 
PERIOD
 
  OUTPUT WILL BE WRITTEN TO NETRECH AND NETDIS FILES WITH UNIT NUMBERS        100       101, RESPECTIVELY
 
 A SQUARE ET FUNCTION WILL BE USED TO SIMULATE GW ET
 
 
INFILTRATION WILL BE REJECTED USING 
LAND SURFACE K
 
 
HYDRAULIC CONDUCTIVITY OF LAND SURFACE 
WILL BE READ
 

 END PROCESSING UZF OPTIONS



            AREAL EXTENT OF UZ FLOW
 READING ON UNIT   19 WITH FORMAT: (20I4)              

                1           2           3           4           5           6           7           8           9          10
 ............................................................................................................................
   1            1           1           0           0           0           0           0           0           0           0
   2            1           1           1           0           0           1           1           1           0           0
   3            0           1           1           1           1           1           1           1           0           0
   4            1           1           1           1           1           1           1           1           1           0
   5            1           1           1           1           1           1           1           1           1           1
   6            1           1           1           1           1           1           1           1           1           1
   7            1           1           1           1           1           1           1           1           1           0
   8            0           1           1           1           1           1           1           1           1           0
   9            0           1           1           1           1           1           1           1           1           0
  10            0           1           1           1           1           1           1           1           1           1
  11            0           1           1           1           1           1           1           1           1           0
  12            1           1           1           1           1           1           1           1           1           0
  13            1           1           1           1           1           1           1           1           1           0
  14            0           1           1           1           1           1           1           1           1           0
  15            0           0           1           1           1           1           0           0           0           0
 OPTION 1 -- RECHARGE IN UZF TO TOP LAYER ONLY 



            ROUTING OVERLAND RUNOFF
 READING ON UNIT   19 WITH FORMAT: (20I4)              

                1           2           3           4           5           6           7           8           9          10
 ............................................................................................................................
   1            1           1           0           0           0           0           0           0           0           0
   2            1           1           1           0           0           3           3           3           0           0
   3            0           1           1           1           3           3           3           3           0           0
   4            8           8           2           2           2           2           2           3           3           0
   5            8           8           8           8           2           2           2           3           4           4
   6            8           8           8           8           8           2           2           4           4           4
   7            8           8           8           8           8           2           5           5           5           0
   8            0           8           8           8           8           2           5           5           5           0
   9            0           8           8           8           8           6           6           6           6           0
  10            0           8           8           8           8           6           6           6           6           6
  11            0           8           8           8           8           8           6           6           7           0
  12            8           8           8           8           8           8           6           7           7           0
  13            8           8           8           8           8           8           7           7           7           0
  14            0           8           8           8           8           8           7           7           7           0
  15            0           0           8           8           8           8           0           0           0           0



               SATURATED VERTICAL K
 READING ON UNIT   19 WITH FORMAT: (10F4.0)            

            1           2           3           4           5           6           7           8           9          10
 ........................................................................................................................
   1   5.0000E-08  5.0000E-08   0.000       0.000       0.000       0.000       0.000       0.000       0.000       0.000    
   2   5.0000E-08  5.0000E-08  5.0000E-08   0.000       0.000      5.0000E-08  5.0000E-08  5.0000E-08   0.000       0.000    
   3    0.000      5.0000E-08  5.0000E-08  5.0000E-08  5.0000E-08  5.0000E-08  5.0000E-08  5.0000E-08   0.000       0.000    
   4   5.0000E-08  5.0000E-08  5.0000E-08  5.0000E-08  5.0000E-08  5.0000E-08  5.0000E-08  5.0000E-08  5.0000E-08   0.000    
   5   5.0000E-08  5.0000E-08  5.0000E-08  5.0000E-08  5.0000E-08  5.0000E-08  5.0000E-08  5.0000E-08  5.0000E-08  5.0000E-08
   6   5.0000E-08  5.0000E-08  5.0000E-08  5.0000E-08  5.0000E-08  5.0000E-08  5.0000E-08  5.0000E-08  5.0000E-08  5.0000E-08
   7   5.0000E-08  5.0000E-08  5.0000E-08  5.0000E-08  5.0000E-08  5.0000E-08  5.0000E-08  5.0000E-08  5.0000E-08   0.000    
   8    0.000      5.0000E-08  5.0000E-08  5.0000E-08  5.0000E-08  5.0000E-08  5.0000E-08  5.0000E-08  5.0000E-08   0.000    
   9    0.000      5.0000E-08  5.0000E-08  5.0000E-08  5.0000E-08  5.0000E-08  5.0000E-08  5.0000E-08  5.0000E-08   0.000    
  10    0.000      5.0000E-08  5.0000E-08  5.0000E-08  5.0000E-08  5.0000E-08  5.0000E-08  5.0000E-08  5.0000E-08  5.0000E-08
  11    0.000      5.0000E-08  5.0000E-08  5.0000E-08  5.0000E-08  5.0000E-08  5.0000E-08  5.0000E-08  5.0000E-08   0.000    
  12   5.0000E-08  5.0000E-08  5.0000E-08  5.0000E-08  5.0000E-08  5.0000E-08  5.0000E-08  5.0000E-08  5.0000E-08   0.000    
  13   5.0000E-08  5.0000E-08  5.0000E-08  5.0000E-08  5.0000E-08  5.0000E-08  5.0000E-08  5.0000E-08  5.0000E-08   0.000    
  14    0.000      5.0000E-08  5.0000E-08  5.0000E-08  5.0000E-08  5.0000E-08  5.0000E-08  5.0000E-08  5.0000E-08   0.000    
  15    0.000       0.000      5.0000E-08  5.0000E-08  5.0000E-08  5.0000E-08   0.000       0.000       0.000       0.000    



            LAND SURFACE VERTICAL K
 READING ON UNIT   19 WITH FORMAT: (10F4.0)            

            1           2           3           4           5           6           7           8           9          10
 ........................................................................................................................
   1   1.0000E-09  1.0000E-09   0.000       0.000       0.000       0.000       0.000       0.000       0.000       0.000    
   2   1.0000E-09  1.0000E-09  1.0000E-09   0.000       0.000      1.0000E-09  1.0000E-09  1.0000E-09   0.000       0.000    
   3    0.000      1.0000E-09  1.0000E-09  1.0000E-09  1.0000E-09  1.0000E-09  1.0000E-09  1.0000E-09   0.000       0.000    
   4   1.0000E-09  1.0000E-09  1.0000E-09  1.0000E-09  1.0000E-09  1.0000E-09  1.0000E-09  1.0000E-09  1.0000E-09   0.000    
   5   1.0000E-09  1.0000E-09  1.0000E-09  1.0000E-09  1.0000E-09  1.0000E-09  1.0000E-09  1.0000E-09  1.0000E-09  1.0000E-09
   6   1.0000E-09  1.0000E-09  1.0000E-09  1.0000E-09  1.0000E-09  1.0000E-09  1.0000E-09  1.0000E-09  1.0000E-09  1.0000E-09
   7   1.0000E-09  1.0000E-09  1.0000E-09  1.0000E-09  1.0000E-09  1.0000E-09  1.0000E-09  1.0000E-09  1.0000E-09   0.000    
   8    0.000      1.0000E-09  1.0000E-09  1.0000E-09  1.0000E-09  1.0000E-09  1.0000E-09  1.0000E-09  1.0000E-09   0.000    
   9    0.000      1.0000E-09  1.0000E-09  1.0000E-09  1.0000E-09  1.0000E-09  1.0000E-09  1.0000E-09  1.0000E-09   0.000    
  10    0.000      1.0000E-09  1.0000E-09  1.0000E-09  1.0000E-09  1.0000E-09  1.0000E-09  1.0000E-09  1.0000E-09  1.0000E-09
  11    0.000      1.0000E-09  1.0000E-09  1.0000E-09  1.0000E-09  1.0000E-09  1.0000E-09  1.0000E-09  1.0000E-09   0.000    
  12   1.0000E-09  1.0000E-09  1.0000E-09  1.0000E-09  1.0000E-09  1.0000E-09  1.0000E-09  1.0000E-09  1.0000E-09   0.000    
  13   1.0000E-09  1.0000E-09  1.0000E-09  1.0000E-09  1.0000E-09  1.0000E-09  1.0000E-09  1.0000E-09  1.0000E-09   0.000    
  14    0.000      1.0000E-09  1.0000E-09  1.0000E-09  1.0000E-09  1.0000E-09  1.0000E-09  1.0000E-09  1.0000E-09   0.000    
  15    0.000       0.000      1.0000E-09  1.0000E-09  1.0000E-09  1.0000E-09   0.000       0.000       0.000       0.000    

     BROOKS-COREY EPSILON =   3.50000    

  SATURATED WATER CONTENT =  0.300000    

   RESIDUAL WATER CONTENT =  5.000000E-02

    INITIAL WATER CONTENT =  6.000000E-02

UNSATURATED FLOW RESULTS WILL BE PRINTED TO SEPARATE FILES FOR SELECTED MODEL CELLS, AND TIME STEPS AS DEFINED BY OUTPUT CONTROL PACKAGE 

SELECTED MODEL CELLS ARE: 
 ROW NUMBER  COLUMN NUMBER  FORTRAN UNIT NUMBER  OUTPUT OPTION


       3             6                 65                 1
       6             3                 66                 2
      10             5                 67                 3
       0             0                 68                 4



   9 GAGING STATIONS WERE SPECIFIED.
     (Lakes are identified by a negative value of the Lake Number)
     RECORDS WILL BE WRITTEN TO SEPARATE OUTPUT FILES REPRESENTED BY FOLLOWING UNIT NUMBERS:

 Stream Gages:
  GAGE #   SEGMENT   REACH   UNIT   OUTTYPE
       1       1       4      83       1
       2       2       3      84       1
       3       3       5      85       1
       4       4       3      86       1
       5       5       4      87       4
       6       6       5      88       4
       7       7       3      89       4
       8       8       6      90       4
       9       3       1      91       5




1
                            STRESS PERIOD NO.    1, LENGTH =   2628000.    
                            -----------------------------------------------

                              NUMBER OF TIME STEPS =     1

                               MULTIPLIER FOR DELT =     1.000

                            INITIAL TIME STEP SIZE =   2628000.    

 WELL NO.  LAYER   ROW   COL   STRESS RATE         
 --------------------------------------------------
      1      1      6      4      -1.000    
      2      1      6      5      -1.000    
      3      1      7      4      -1.000    
      4      1      7      5      -1.000    
      5      1      8      4      -1.000    
      6      1      8      5      -1.000    
      7      1      9      4      -1.000    
      8      1      9      5      -1.000    
      9      1     10      4      -1.000    
     10      1     10      5      -1.000    

     10 WELLS

 BOUND. NO. LAYER   ROW   COL     STAGE      CONDUCTANCE         
 ----------------------------------------------------------------
      1      1     13      1       988.0          0.3800E-01
      2      1     14      9       1045.          0.3800E-01

      2 GHB CELLS



 CLASSIFICATION & COUNT OF STREAM SEGMENTS BASED ON SOURCE OF INFLOW:

                HEADWATER     DIVERSION     RECEIVES TRIBUTARY FLOW
                ---------     ---------     -----------------------
                     3              1               4



                    INPUT DATA FOR EACH STREAM SEGMENT
 ---------------------------------------------------------------------------------------------

 SEGMENT    SEG.     INFLOW   OVERLAND   STREAM    STREAM   ICALC  OUTFLOW  DIVERSION PRIORITY
    NO.    LENGTH     RATE     RUNOFF      ET       PPT.    METH.  TO SEG.  FROM SEG.    NO.

      1  2.305E+04 2.500E+01 0.000E+00 0.000E+00 0.000E+00    4        2        0        0
      2  2.650E+04 0.000E+00 0.000E+00 0.000E+00 0.000E+00    1        6        0        0
      3  2.750E+04 1.000E+01 0.000E+00 0.000E+00 0.000E+00    0        5        1        0
      4  1.100E+04 1.000E+01 0.000E+00 0.000E+00 0.000E+00    1        5        0        0
      5  1.500E+04 0.000E+00 0.000E+00 0.000E+00 0.000E+00    3        6        0        0
      6  2.200E+04 0.000E+00 0.000E+00 0.000E+00 0.000E+00    1        8        0        0
      7  1.550E+04 1.500E+02 0.000E+00 0.000E+00 0.000E+00    2        8        0        0
      8  2.800E+04 0.000E+00 0.000E+00 0.000E+00 0.000E+00    2        0        0        0


         STREAMBED PROPERTIES AND STREAM DIMENSIONS

 SEGMENT     BED HYD. COND.      BED THICKNESS     ELEV.-TOP OF BED     WIDTH OF STREAM     DEPTH OF STREAM    STREAM ROUGHNESS
    No.     UPPER     LOWER     UPPER     LOWER     UPPER     LOWER     UPPER     LOWER     UPPER     LOWER   CHANNEL      BANK

     1  3.000E-05 3.000E-05 3.000E+00 3.000E+00 1.095E+03 1.075E+03
     2  3.000E-05 3.000E-05 3.000E+00 3.000E+00 1.075E+03 1.050E+03 1.200E+01 1.200E+01                     3.000E-02
     3  3.000E-05 3.000E-05 2.000E+00 2.000E+00 1.075E+03 1.060E+03 1.000E+01 6.000E+00 2.000E+00 1.000E+00
     4  3.000E-05 3.000E-05 3.000E+00 3.000E+00 1.080E+03 1.060E+03 1.000E+01 1.000E+01                     3.000E-02
     5  3.000E-05 3.000E-05 3.000E+00 3.000E+00 1.060E+03 1.045E+03
     6  3.000E-05 3.000E-05 3.000E+00 3.000E+00 1.045E+03 1.025E+03 1.200E+01 1.200E+01                     3.000E-02
     7  6.000E-05 6.000E-05 3.000E+00 3.000E+00 1.040E+03 1.025E+03                                         2.500E-02 4.500E-02
     8  6.000E-05 6.000E-05 3.000E+00 3.000E+00 1.025E+03 9.900E+02                                         2.500E-02 4.500E-02

  EIGHT POINT CROSS-SECTION DATA FOR SEGMENTS WITH ICALC = 2
    X VALUES X VALUES START FROM LEFT SIDE LOOKING DOWNSTREAM

     SEGMENT NO.        X1        X2        X3        X4        X5        X6        X7        X8
            7      0.000E+00 1.000E+01 8.000E+01 1.000E+02 1.500E+02 1.700E+02 2.400E+02 2.500E+02
            8      0.000E+00 1.000E+01 8.000E+01 1.000E+02 1.500E+02 1.700E+02 2.400E+02 2.500E+02

    Z VALUES ARE RELATIVE TO STREAMBED ELEVATION

     SEGMENT NO.          Z1        Z2        Z3        Z4        Z5        Z6        Z7        Z8
            7      2.000E+01 1.300E+01 1.000E+01 2.000E+00 0.000E+00 1.000E+01 1.300E+01 2.000E+01
            8      2.500E+01 1.700E+01 1.300E+01 4.000E+00 0.000E+00 1.000E+01 1.600E+01 2.000E+01

 STREAMFLOW RELATION WITH DEPTH IS BASED ON EQUATION Q = CDPTH*(DEPTH)**FDPTH
 STREAMFLOW RELATION WITH WIDTH IS BASED ON EQUATION Q = AWDTH*(WIDTH)**BWDTH

 SEGMENT NO.      CDPTH     FDPTH    AWDTH     BWDTH

          5 3.000E-01 3.500E-01 3.800E+00 6.000E-01

 STREAMFLOW RELATION WITH DEPTH AND WIDTH IS BASED ON TABULATED VALUES

  SEGMENT NO.   STREAMFLOW       DEPTH       WIDTH

          1     5.0000E-01   2.5000E-01   3.0000E+00
          1     1.0000E+00   4.0000E-01   3.5000E+00
          1     2.0000E+00   5.5000E-01   4.2000E+00
          1     4.0000E+00   7.0000E-01   5.3000E+00
          1     7.0000E+00   8.0000E-01   7.0000E+00
          1     1.0000E+01   9.0000E-01   8.5000E+00
          1     2.0000E+01   1.1000E+00   1.2000E+01
          1     3.0000E+01   1.2500E+00   1.4000E+01
          1     5.0000E+01   1.4000E+00   1.7000E+01
          1     7.5000E+01   1.7000E+00   2.0000E+01
          1     1.0000E+02   1.8000E+00   2.2000E+01






            AREAL INFILTRATION RATE
 READING ON UNIT   19 WITH FORMAT: (10F4.0)            

            1           2           3           4           5           6           7           8           9          10
 ........................................................................................................................
   1   1.0000E-09  2.0000E-09   0.000       0.000       0.000       0.000       0.000       0.000       0.000       0.000    
   2   2.0000E-09  1.0000E-09  2.0000E-09   0.000       0.000      8.0000E-09  8.0000E-09  5.0000E-09   0.000       0.000    
   3    0.000      5.0000E-09  1.0000E-09  1.0000E-09  8.0000E-09  8.0000E-09  5.0000E-09  5.0000E-09   0.000       0.000    
   4   8.0000E-09  5.0000E-09  1.0000E-09  1.0000E-09  1.0000E-09  1.0000E-09  1.0000E-09  1.0000E-09  2.0000E-09   0.000    
   5   8.0000E-09  5.0000E-09  1.0000E-09  1.0000E-09  1.0000E-09  1.0000E-09  1.0000E-09  1.0000E-09  1.0000E-09  1.0000E-09
   6   8.0000E-09  5.0000E-09  5.0000E-09  2.0000E-09  2.0000E-09  1.0000E-09  1.0000E-09  1.0000E-09  1.0000E-09  5.0000E-09
   7   8.0000E-09  5.0000E-09  5.0000E-09  2.0000E-09  2.0000E-09  1.0000E-09  1.0000E-09  2.0000E-09  2.0000E-09   0.000    
   8    0.000      5.0000E-09  5.0000E-09  2.0000E-09  2.0000E-09  1.0000E-09  1.0000E-09  2.0000E-09  5.0000E-09   0.000    
   9    0.000      5.0000E-09  5.0000E-09  2.0000E-09  2.0000E-09  1.0000E-09  1.0000E-09  2.0000E-09  5.0000E-09   0.000    
  10    0.000      5.0000E-09  5.0000E-09  2.0000E-09  2.0000E-09  1.0000E-09  1.0000E-09  2.0000E-09  5.0000E-09  8.0000E-09
  11    0.000      1.0000E-09  1.0000E-09  1.0000E-09  1.0000E-09  1.0000E-09  1.0000E-09  2.0000E-09  5.0000E-09   0.000    
  12   1.0000E-09  1.0000E-09  1.0000E-09  1.0000E-09  1.0000E-09  1.0000E-09  1.0000E-09  1.0000E-09  2.0000E-09   0.000    
  13   1.0000E-09  1.0000E-09  2.0000E-09  2.0000E-09  2.0000E-09  2.0000E-09  2.0000E-09  1.0000E-09  1.0000E-09   0.000    
  14    0.000      2.0000E-09  5.0000E-09  5.0000E-09  5.0000E-09  5.0000E-09  5.0000E-09  2.0000E-09  1.0000E-09   0.000    
  15    0.000       0.000      8.0000E-09  8.0000E-09  8.0000E-09  8.0000E-09   0.000       0.000       0.000       0.000    

                  ET RATE =  1.000000E-08

      ET EXTINCTION DEPTH =   5.00000    



           EXTINCTION WATER CONTENT
 READING ON UNIT   19 WITH FORMAT: (10F4.0)            

            1           2           3           4           5           6           7           8           9          10
 ........................................................................................................................
   1   0.1000      0.1000       0.000       0.000       0.000       0.000       0.000       0.000       0.000       0.000    
   2   0.2000      0.1000      0.1000       0.000       0.000      0.2000      0.2000      0.2000       0.000       0.000    
   3    0.000      0.2000      0.1000      0.1000      0.2000      0.2000      0.2000      0.2000       0.000       0.000    
   4   0.2000      0.2000      0.2000      0.1000      0.1000      0.1000      0.2000      0.2000      0.2000      0.1000    
   5   0.2000      0.2000      0.2000      0.1000      0.1000      0.1000      0.1000      0.1000      0.1000      0.1000    
   6   0.2000      0.2000      0.2000      0.1000      0.1000      0.1000      0.1000      0.1000      0.2000      0.2000    
   7   0.2000      0.2000      0.2000      0.1000      0.1000      0.1000      0.1000      0.1000      0.2000       0.000    
   8    0.000      0.2000      0.2000      0.1000      0.1000      0.1000      0.1000      0.2000      0.2000       0.000    
   9    0.000      0.2000      0.2000      0.1000      0.1000      0.1000      0.1000      0.2000      0.2000       0.000    
  10    0.000      0.2000      0.2000      0.1000      0.1000      0.1000      0.1000      0.2000      0.2000      0.2000    
  11    0.000      0.2000      0.2000      0.1000      0.1000      0.1000      0.1000      0.2000      0.2000       0.000    
  12   0.2000      0.2000      0.1000      0.1000      0.1000      0.1000      0.1000      0.2000      0.2000       0.000    
  13   0.1000      0.1000      0.1000      0.1000      0.1000      0.1000      0.1000      0.1000      0.1000       0.000    
  14    0.000      0.2000      0.2000      0.2000      0.2000      0.2000      0.2000      0.2000      0.1000       0.000    
  15    0.000       0.000      0.2000      0.2000      0.2000      0.2000       0.000       0.000       0.000       0.000    
 
 SOLVING FOR HEAD 
                                                   Max.-Head-Change                         Max.-Flux-Residual
  Residual-Control   Outer-Iter.   Inner-Iter.     Column Row Layer    Maximum-Head-Change  Column Row Layer    Maximum-Flux-Residual          L2-NORM 
          0                 1           6             3    3     1      -0.2424761391E+02       4   13    1         0.3321221227E+01      0.9936674197E+01
          0                 2           6             1    1     1      -0.4516144916E+02       1   13    1        -0.8746237613E+01      0.1141483916E+02
          0                 3           6             5   13     1      -0.1767201235E+01       5   13    1        -0.3407572882E+01      0.3571281898E+01
          0                 4           6             4   13     1      -0.3897499618E+00       4   13    1        -0.6944371813E+00      0.7420989856E+00
          0                 5           4             4   13     1       0.3125570618E-01       4   13    1         0.5974002014E-01      0.6752122617E-01
          0                 6           5             4   13     1      -0.2463641793E-02       4   13    1        -0.4613992887E-02      0.5864503351E-02
          0                 7           1             4   13     1       0.1461597854E-03       4   13    1         0.3078526186E-03      0.4697589862E-03
          0                 8           1             4   13     1      -0.7798934610E-05       4   13    1        -0.1800566315E-04      0.3023621665E-04

    ------------------------------------------------
       NWT REQUIRED            8 OUTER ITERATIONS 
       AND A TOTAL OF         35 INNER ITERATIONS.
    ------------------------------------------------

 OUTPUT CONTROL FOR STRESS PERIOD    1   TIME STEP    1
    PRINT BUDGET
    SAVE BUDGET

            WELLS   PERIOD    1   STEP   1
 WELL      1   LAYER   1   ROW     6   COL     4   RATE    -1.00000    
 WELL      2   LAYER   1   ROW     6   COL     5   RATE    -1.00000    
 WELL      3   LAYER   1   ROW     7   COL     4   RATE    -1.00000    
 WELL      4   LAYER   1   ROW     7   COL     5   RATE    -1.00000    
 WELL      5   LAYER   1   ROW     8   COL     4   RATE    -1.00000    
 WELL      6   LAYER   1   ROW     8   COL     5   RATE    -1.00000    
 WELL      7   LAYER   1   ROW     9   COL     4   RATE    -1.00000    
 WELL      8   LAYER   1   ROW     9   COL     5   RATE    -1.00000    
 WELL      9   LAYER   1   ROW    10   COL     4   RATE    -1.00000    
 WELL     10   LAYER   1   ROW    10   COL     5   RATE    -1.00000    

  HEAD DEP BOUNDS   PERIOD    1   STEP     1
 BOUNDARY      1   LAYER   1   ROW    13   COL     1   RATE   -0.286015    
 BOUNDARY      2   LAYER   1   ROW    14   COL     9   RATE    0.299905    



 STREAM LISTING     PERIOD      1   STEP        1

 LAYER ROW COL. STREAM  RCH.  FLOW INTO     FLOW TO   FLOW OUT OF   OVRLND.     DIRECT     STREAM       STREAM     STREAM     STREAM   STREAMBED  STREAMBED
                SEG.NO.  NO.  STRM. RCH.    AQUIFER    STRM. RCH.    RUNOFF     PRECIP       ET          HEAD       DEPTH      WIDTH   CONDCTNC.   GRADIENT

   1    1    1     1     1    2.5000E+01  2.4523E-01   2.4789E+01  3.416E-02  0.000E+00  0.000E+00  1.09423E+03  1.179E+00  1.304E+01  5.869E-02  1.393E+00
   1    2    2     1     2    2.4789E+01  3.7953E-01   2.4463E+01  5.315E-02  0.000E+00  0.000E+00  1.08923E+03  1.175E+00  1.299E+01  9.091E-02  1.392E+00
   1    3    3     1     3    2.4463E+01  3.2343E-01   2.4185E+01  4.555E-02  0.000E+00  0.000E+00  1.08359E+03  1.170E+00  1.293E+01  7.756E-02  1.390E+00
   1    3    4     1     4    2.4185E+01  2.9763E-01   2.3929E+01  4.214E-02  0.000E+00  0.000E+00  1.07857E+03  1.166E+00  1.287E+01  7.144E-02  1.389E+00
   1    4    5     2     1    1.3929E+01  3.0031E-08   1.3929E+01  0.000E+00  0.000E+00  0.000E+00  1.07278E+03  8.502E-01  1.200E+01  7.800E-09  1.283E+00
   1    5    6     2     2    1.3929E+01  2.3101E-08   1.3929E+01  0.000E+00  0.000E+00  0.000E+00  1.06736E+03  8.502E-01  1.200E+01  6.000E-09  1.283E+00
   1    6    6     2     3    1.3929E+01  2.3101E-08   1.3929E+01  0.000E+00  0.000E+00  0.000E+00  1.06264E+03  8.502E-01  1.200E+01  6.000E-09  1.283E+00
   1    7    6     2     4    1.3929E+01  2.3101E-08   1.3929E+01  0.000E+00  0.000E+00  0.000E+00  1.05793E+03  8.502E-01  1.200E+01  6.000E-09  1.283E+00
   1    8    6     2     5    1.3929E+01  2.3101E-08   1.3929E+01  0.000E+00  0.000E+00  0.000E+00  1.05321E+03  8.502E-01  1.200E+01  6.000E-09  1.283E+00
   1    3    5     3     1    1.0000E+01  2.8252E-01   9.9038E+00  1.864E-01  0.000E+00  0.000E+00  1.07555E+03  1.909E+00  9.636E+00  7.227E-02  1.955E+00
   1    3    6     3     2    9.9038E+00  2.4905E-01   9.8412E+00  1.864E-01  0.000E+00  0.000E+00  1.07264E+03  1.727E+00  8.909E+00  6.682E-02  1.864E+00
   1    3    7     3     3    9.8412E+00  1.9718E-01   9.8117E+00  1.677E-01  0.000E+00  0.000E+00  1.06987E+03  1.555E+00  8.218E+00  5.547E-02  1.777E+00
   1    4    8     3     4    9.8117E+00  2.2567E-01   9.8097E+00  2.236E-01  0.000E+00  0.000E+00  1.06682E+03  1.364E+00  7.455E+00  6.709E-02  1.682E+00
   1    5    8     3     5    9.8097E+00  1.5790E-01   9.8381E+00  1.864E-01  0.000E+00  0.000E+00  1.06362E+03  1.164E+00  6.655E+00  4.991E-02  1.582E+00
   1    6    8     3     6    9.8381E+00  5.5980E-02   9.8567E+00  7.455E-02  0.000E+00  0.000E+00  1.06158E+03  1.036E+00  6.145E+00  1.844E-02  1.518E+00
   1    5   10     4     1    1.0000E+01  9.0974E-09   1.0023E+01  2.273E-02  0.000E+00  0.000E+00  1.07837E+03  6.389E-01  1.000E+01  2.500E-09  1.213E+00
   1    5    9     4     2    1.0023E+01  1.8201E-08   1.0068E+01  4.545E-02  0.000E+00  0.000E+00  1.07155E+03  6.403E-01  1.000E+01  5.000E-09  1.213E+00
   1    6    8     4     3    1.0068E+01  1.2746E-08   1.0100E+01  3.182E-02  0.000E+00  0.000E+00  1.06382E+03  6.417E-01  1.000E+01  3.500E-09  1.214E+00
   1    6    8     5     1    1.9957E+01  3.5132E-01   1.9652E+01  4.667E-02  0.000E+00  0.000E+00  1.05885E+03  8.531E-01  2.280E+01  9.118E-02  1.284E+00
   1    7    7     5     2    1.9652E+01  4.3403E-01   1.9276E+01  5.833E-02  0.000E+00  0.000E+00  1.05435E+03  8.479E-01  2.256E+01  1.128E-01  1.283E+00
   1    8    7     5     3    1.9276E+01  3.0046E-01   1.9017E+01  4.083E-02  0.000E+00  0.000E+00  1.05009E+03  8.430E-01  2.234E+01  7.818E-02  1.281E+00
   1    8    6     5     4    1.9017E+01  2.1293E-01   1.8833E+01  2.917E-02  0.000E+00  0.000E+00  1.04709E+03  8.396E-01  2.218E+01  5.546E-02  1.280E+00
   1    9    6     6     1    3.2762E+01  2.6625E-08   3.2864E+01  1.023E-01  0.000E+00  0.000E+00  1.04416E+03  1.437E+00  1.200E+01  6.000E-09  1.479E+00
   1   10    7     6     2    3.2864E+01  2.6641E-08   3.2967E+01  1.023E-01  0.000E+00  0.000E+00  1.03962E+03  1.440E+00  1.200E+01  6.000E-09  1.480E+00
   1   11    7     6     3    3.2967E+01  2.6657E-08   3.3069E+01  1.023E-01  0.000E+00  0.000E+00  1.03508E+03  1.443E+00  1.200E+01  6.000E-09  1.481E+00
   1   12    7     6     4    3.3069E+01  2.6673E-08   3.3171E+01  1.023E-01  0.000E+00  0.000E+00  1.03054E+03  1.446E+00  1.200E+01  6.000E-09  1.482E+00
   1   13    7     6     5    3.3171E+01  5.5947E-07   3.3212E+01  4.091E-02  0.000E+00  0.000E+00  1.02736E+03  1.447E+00  1.200E+01  2.400E-07  7.770E-01
   1   14    9     7     1    1.5000E+02  1.5438E+00   1.4854E+02  8.871E-02  0.000E+00  0.000E+00  1.03987E+03  2.287E+00  5.529E+01  5.593E-01  9.201E-01
   1   13    8     7     2    1.4854E+02  2.5113E+00   1.4613E+02  9.758E-02  0.000E+00  0.000E+00  1.03478E+03  2.277E+00  5.525E+01  6.147E-01  1.362E+00
   1   13    7     7     3    1.4613E+02  2.5997E+00   1.4362E+02  8.871E-02  0.000E+00  0.000E+00  1.02968E+03  2.264E+00  5.519E+01  5.581E-01  1.553E+00
   1   13    6     8     1    1.7683E+02  2.0083E+00   1.7543E+02  6.027E-01  0.000E+00  0.000E+00  1.02487E+03  2.992E+00  4.338E+01  4.421E-01  1.514E+00
   1   13    5     8     2    1.7543E+02  1.1929E+00   1.7484E+02  6.027E-01  0.000E+00  0.000E+00  1.01861E+03  2.985E+00  4.329E+01  4.411E-01  9.014E-01
   1   13    4     8     3    1.7484E+02  2.3323E-01   1.7521E+02  6.027E-01  0.000E+00  0.000E+00  1.01236E+03  2.985E+00  4.328E+01  4.410E-01  1.763E-01
   1   13    3     8     4    1.7521E+02 -1.8102E+00   1.7762E+02  6.027E-01  0.000E+00  0.000E+00  1.00612E+03  2.993E+00  4.341E+01  4.423E+00 -1.364E-01
   1   13    2     8     5    1.7762E+02 -1.9725E+00   1.8019E+02  6.027E-01  0.000E+00  0.000E+00  9.99884E+02  3.009E+00  4.363E+01  4.447E+00 -1.479E-01
   1   13    1     8     6    1.8019E+02 -1.6833E+00   1.8224E+02  3.616E-01  0.000E+00  0.000E+00  9.94899E+02  3.024E+00  4.384E+01  2.681E+00 -2.093E-01



 UBDSV3 SAVING "     NETRECHARGE" ON UNIT 100 AT TIME STEP     1, STRESS PERIOD   1
 UBDSV3 SAVING "    NETDISCHARGE" ON UNIT 101 AT TIME STEP     1, STRESS PERIOD   1
 UBDSV3 SAVING "           GW ET" ON UNIT  61 AT TIME STEP     1, STRESS PERIOD   1
 UBDSV3 SAVING "    UZF RECHARGE" ON UNIT  61 AT TIME STEP     1, STRESS PERIOD   1
 UBDSV3 SAVING " SURFACE LEAKAGE" ON UNIT  61 AT TIME STEP     1, STRESS PERIOD   1
 UBDSV3 SAVING "       HORT+DUNN" ON UNIT  61 AT TIME STEP     1, STRESS PERIOD   1
 UBDSV3 SAVING "  STORAGE CHANGE" ON UNIT  61 AT TIME STEP     1, STRESS PERIOD   1


UNSATURATED ZONE PACKAGE VOLUMETRIC BUDGET FOR  TIME STEP     1 STRESS PERIOD    1
  ------------------------------------------------------------------------------



     CUMULATIVE VOLUMES      L**3       RATES FOR THIS TIME STEP      L**3/T
     ------------------                 ------------------------

           IN:                                      IN:
           ---                                      ---
        INFILTRATION =     7621200.0000          INFILTRATION =           2.9000

          OUT:                                     OUT:
          ----                                     ----
              UZF ET =       0.0000E+00                UZF ET =       0.0000E+00
        UZF RECHARGE =     7621200.0000          UZF RECHARGE =           2.9000

            IN - OUT =       0.0000E+00              IN - OUT =       0.0000E+00

          STORAGE:                                 STORAGE:
          --------                                 --------
      STORAGE CHANGE =       0.0000E+00        STORAGE CHANGE =       0.0000E+00

 PERCENT DISCREPANCY IS DIFFERENCE BETWEEN IN-OUT MINUS CHANGE IN STORAGE
 DIVIDED BY THE AVERAGE OF IN AND OUT TIMES 100

 PERCENT DISCREPANCY =           0.00     PERCENT DISCREPANCY =           0.00






1
  VOLUMETRIC BUDGET FOR ENTIRE MODEL AT END OF TIME STEP    1, STRESS PERIOD   1
  ------------------------------------------------------------------------------

     CUMULATIVE VOLUMES      L**3       RATES FOR THIS TIME STEP      L**3/T
     ------------------                 ------------------------

           IN:                                      IN:
           ---                                      ---
             STORAGE =           0.0000               STORAGE =           0.0000
       CONSTANT HEAD =           0.0000         CONSTANT HEAD =           0.0000
               WELLS =           0.0000                 WELLS =           0.0000
     HEAD DEP BOUNDS =      788150.5625       HEAD DEP BOUNDS =           0.2999
      STREAM LEAKAGE =    36271904.0000        STREAM LEAKAGE =          13.8021
        UZF RECHARGE =     7621205.5000          UZF RECHARGE =           2.9000
               GW ET =           0.0000                 GW ET =           0.0000
     SURFACE LEAKAGE =           0.0000       SURFACE LEAKAGE =           0.0000

            TOTAL IN =    44681260.0000              TOTAL IN =          17.0020

          OUT:                                     OUT:
          ----                                     ----
             STORAGE =           0.0000               STORAGE =           0.0000
       CONSTANT HEAD =           0.0000         CONSTANT HEAD =           0.0000
               WELLS =    26280000.0000                 WELLS =          10.0000
     HEAD DEP BOUNDS =      751646.4375       HEAD DEP BOUNDS =           0.2860
      STREAM LEAKAGE =    14364591.0000        STREAM LEAKAGE =           5.4660
        UZF RECHARGE =           0.0000          UZF RECHARGE =           0.0000
               GW ET =     3285000.0000                 GW ET =           1.2500
     SURFACE LEAKAGE =           0.0000       SURFACE LEAKAGE =           0.0000

           TOTAL OUT =    44681236.0000             TOTAL OUT =          17.0020

            IN - OUT =          24.0000              IN - OUT =       7.6294E-06

 PERCENT DISCREPANCY =           0.00     PERCENT DISCREPANCY =           0.00






         TIME SUMMARY AT END OF TIME STEP    1 IN STRESS PERIOD    1
                    SECONDS     MINUTES      HOURS       DAYS        YEARS
                    -----------------------------------------------------------
   TIME STEP LENGTH 2.62800E+06  43800.      730.00      30.417     8.32763E-02
 STRESS PERIOD TIME 2.62800E+06  43800.      730.00      30.417     8.32763E-02
         TOTAL TIME 2.62800E+06  43800.      730.00      30.417     8.32763E-02
1
1
                            STRESS PERIOD NO.    2, LENGTH =   2628000.    
                            -----------------------------------------------

                              NUMBER OF TIME STEPS =    15

                               MULTIPLIER FOR DELT =     1.100

                            INITIAL TIME STEP SIZE =   82713.07    

 WELL NO.  LAYER   ROW   COL   STRESS RATE         
 --------------------------------------------------
      1      1      6      4      -4.000    
      2      1      6      5      -4.000    
      3      1      7      4      -4.000    
      4      1      7      5      -4.000    
      5      1      8      4      -4.000    
      6      1      8      5      -4.000    
      7      1      9      4      -4.000    
      8      1      9      5      -4.000    
      9      1     10      4      -4.000    
     10      1     10      5      -4.000    

     10 WELLS

 REUSING NON-PARAMETER GHB CELLS FROM LAST STRESS PERIOD

      2 GHB CELLS

 REUSING STREAM SEGMENT DATA FROM LAST STRESS PERIOD



            AREAL INFILTRATION RATE
 READING ON UNIT   19 WITH FORMAT: (10F4.0)            

            1           2           3           4           5           6           7           8           9          10
 ........................................................................................................................
   1   8.0000E-09  1.6000E-08   0.000       0.000       0.000       0.000       0.000       0.000       0.000       0.000    
   2   1.6000E-08  8.0000E-09  1.6000E-08   0.000       0.000      6.4000E-08  6.4000E-08  4.0000E-08   0.000       0.000    
   3    0.000      4.0000E-08  8.0000E-09  8.0000E-09  6.4000E-08  6.4000E-08  4.0000E-08  4.0000E-08   0.000       0.000    
   4   6.4000E-08  4.0000E-08  8.0000E-09  8.0000E-09  8.0000E-09  8.0000E-09  8.0000E-09  8.0000E-09  1.6000E-08   0.000    
   5   6.4000E-08  4.0000E-08  8.0000E-09  8.0000E-09  8.0000E-09  8.0000E-09  8.0000E-09  8.0000E-09  8.0000E-09  8.0000E-09
   6   6.4000E-08  4.0000E-08  4.0000E-08  1.6000E-08  1.6000E-08  8.0000E-09  8.0000E-09  8.0000E-09  8.0000E-09  4.0000E-08
   7   6.4000E-08  4.0000E-08  4.0000E-08  1.6000E-08  1.6000E-08  8.0000E-09  8.0000E-09  1.6000E-08  1.6000E-08   0.000    
   8    0.000      4.0000E-08  4.0000E-08  1.6000E-08  1.6000E-08  8.0000E-09  8.0000E-09  1.6000E-08  4.0000E-08   0.000    
   9    0.000      4.0000E-08  4.0000E-08  1.6000E-08  1.6000E-08  8.0000E-09  8.0000E-09  1.6000E-08  4.0000E-08   0.000    
  10    0.000      4.0000E-08  4.0000E-08  1.6000E-08  1.6000E-08  8.0000E-09  8.0000E-09  1.6000E-08  4.0000E-08  6.4000E-08
  11    0.000      8.0000E-09  8.0000E-09  8.0000E-09  8.0000E-09  8.0000E-09  8.0000E-09  1.6000E-08  4.0000E-08   0.000    
  12   8.0000E-09  8.0000E-09  8.0000E-09  8.0000E-09  8.0000E-09  8.0000E-09  8.0000E-09  8.0000E-09  1.6000E-08   0.000    
  13   8.0000E-09  8.0000E-09  1.6000E-08  1.6000E-08  1.6000E-08  1.6000E-08  1.6000E-08  8.0000E-09  8.0000E-09   0.000    
  14    0.000      1.6000E-08  4.0000E-08  4.0000E-08  4.0000E-08  4.0000E-08  4.0000E-08  1.6000E-08  8.0000E-09   0.000    
  15    0.000       0.000      6.4000E-08  6.4000E-08  6.4000E-08  6.4000E-08   0.000       0.000       0.000       0.000    

                  ET RATE =  5.000000E-08

 USING ET EXTINCTION DEPTH FROM PREVIOUS STRESS PERIOD. CURRENT PERIOD IS:       2

 USING EXTINCTION WATER CONTENT FROM PREVIOUS STRESS PERIOD. CURRENT PERIOD IS:       2
 
 SOLVING FOR HEAD 
                                                   Max.-Head-Change                         Max.-Flux-Residual
  Residual-Control   Outer-Iter.   Inner-Iter.     Column Row Layer    Maximum-Head-Change  Column Row Layer    Maximum-Flux-Residual          L2-NORM 
          0                 1           2             4    8     1      -0.5475491118E-01       5   10    1        -0.3024987818E+01      0.9657817418E+01
          0                 2           2             4    8     1       0.5425413474E-02       5    8    1         0.3024818681E+00      0.9652494582E+00
          0                 3           2             4    8     1      -0.4838526669E-03       5    8    1        -0.2722337947E-01      0.8686085544E-01
          0                 4           1             4    8     1       0.3840492853E-04       5    8    1         0.2180593188E-02      0.6957254041E-02

    ------------------------------------------------
       NWT REQUIRED            4 OUTER ITERATIONS 
       AND A TOTAL OF          7 INNER ITERATIONS.
    ------------------------------------------------

 OUTPUT CONTROL WAS SPECIFIED FOR A NONEXISTENT TIME STEP
 OR OUTPUT CONTROL DATA ARE NOT ENTERED IN ASCENDING ORDER
 OUTPUT CONTROL STRESS PERIOD    1   TIME STEP    5
 MODEL STRESS PERIOD    2   TIME STEP    1
 APPLYING THE SPECIFIED OUTPUT CONTROL TO THE CURRENT TIME STEP

 OUTPUT CONTROL FOR STRESS PERIOD    2   TIME STEP    1
    PRINT BUDGET
    SAVE BUDGET

            WELLS   PERIOD    2   STEP   1
 WELL      1   LAYER   1   ROW     6   COL     4   RATE    -4.00000    
 WELL      2   LAYER   1   ROW     6   COL     5   RATE    -4.00000    
 WELL      3   LAYER   1   ROW     7   COL     4   RATE    -4.00000    
 WELL      4   LAYER   1   ROW     7   COL     5   RATE    -4.00000    
 WELL      5   LAYER   1   ROW     8   COL     4   RATE    -4.00000    
 WELL      6   LAYER   1   ROW     8   COL     5   RATE    -4.00000    
 WELL      7   LAYER   1   ROW     9   COL     4   RATE    -4.00000    
 WELL      8   LAYER   1   ROW     9   COL     5   RATE    -4.00000    
 WELL      9   LAYER   1   ROW    10   COL     4   RATE    -4.00000    
 WELL     10   LAYER   1   ROW    10   COL     5   RATE    -4.00000    

  HEAD DEP BOUNDS   PERIOD    2   STEP     1
 BOUNDARY      1   LAYER   1   ROW    13   COL     1   RATE   -0.285848    
 BOUNDARY      2   LAYER   1   ROW    14   COL     9   RATE    0.299919    



 STREAM LISTING     PERIOD      2   STEP        1

 LAYER ROW COL. STREAM  RCH.  FLOW INTO     FLOW TO   FLOW OUT OF   OVRLND.     DIRECT     STREAM       STREAM     STREAM     STREAM   STREAMBED  STREAMBED
                SEG.NO.  NO.  STRM. RCH.    AQUIFER    STRM. RCH.    RUNOFF     PRECIP       ET          HEAD       DEPTH      WIDTH   CONDCTNC.   GRADIENT

   1    1    1     1     1    2.5000E+01  2.4641E-01   2.5300E+01  5.466E-01  0.000E+00  0.000E+00  1.09423E+03  1.182E+00  1.309E+01  5.891E-02  1.394E+00
   1    2    2     1     2    2.5300E+01  3.8602E-01   2.5765E+01  8.503E-01  0.000E+00  0.000E+00  1.08925E+03  1.188E+00  1.317E+01  9.217E-02  1.396E+00
   1    3    3     1     3    2.5765E+01  3.3348E-01   2.6160E+01  7.289E-01  0.000E+00  0.000E+00  1.08361E+03  1.194E+00  1.325E+01  7.951E-02  1.398E+00
   1    3    4     1     4    2.6160E+01  3.1058E-01   2.6524E+01  6.742E-01  0.000E+00  0.000E+00  1.07861E+03  1.200E+00  1.332E+01  7.395E-02  1.400E+00
   1    4    5     2     1    1.6524E+01  3.0815E-12   1.7039E+01  5.151E-01  0.000E+00  0.000E+00  1.07288E+03  9.507E-01  1.200E+01  7.800E-13  1.317E+00
   1    5    6     2     2    1.7039E+01  2.3797E-12   1.7435E+01  3.962E-01  0.000E+00  0.000E+00  1.06748E+03  9.661E-01  1.200E+01  6.000E-13  1.322E+00
   1    6    6     2     3    1.7435E+01  2.3876E-12   1.7831E+01  3.962E-01  0.000E+00  0.000E+00  1.06277E+03  9.794E-01  1.200E+01  6.000E-13  1.326E+00
   1    7    6     2     4    1.7831E+01  2.3955E-12   1.8227E+01  3.962E-01  0.000E+00  0.000E+00  1.05807E+03  9.925E-01  1.200E+01  6.000E-13  1.331E+00
   1    8    6     2     5    1.8227E+01  2.4033E-12   1.8624E+01  3.962E-01  0.000E+00  0.000E+00  1.05336E+03  1.006E+00  1.200E+01  6.000E-13  1.335E+00
   1    3    5     3     1    1.0000E+01  2.8252E-01   1.1527E+01  1.809E+00  0.000E+00  0.000E+00  1.07555E+03  1.909E+00  9.636E+00  7.227E-02  1.955E+00
   1    3    6     3     2    1.1527E+01  2.4905E-01   1.3087E+01  1.809E+00  0.000E+00  0.000E+00  1.07264E+03  1.727E+00  8.909E+00  6.682E-02  1.864E+00
   1    3    7     3     3    1.3087E+01  1.9718E-01   1.4518E+01  1.628E+00  0.000E+00  0.000E+00  1.06987E+03  1.555E+00  8.218E+00  5.547E-02  1.777E+00
   1    4    8     3     4    1.4518E+01  2.2567E-01   1.6463E+01  2.171E+00  0.000E+00  0.000E+00  1.06682E+03  1.364E+00  7.455E+00  6.709E-02  1.682E+00
   1    5    8     3     5    1.6463E+01  1.5790E-01   1.8114E+01  1.809E+00  0.000E+00  0.000E+00  1.06362E+03  1.164E+00  6.655E+00  4.991E-02  1.582E+00
   1    6    8     3     6    1.8114E+01  5.5980E-02   1.8782E+01  7.236E-01  0.000E+00  0.000E+00  1.06158E+03  1.036E+00  6.145E+00  1.844E-02  1.518E+00
   1    5   10     4     1    1.0000E+01  9.1144E-13   1.0381E+01  3.807E-01  0.000E+00  0.000E+00  1.07837E+03  6.458E-01  1.000E+01  2.500E-13  1.215E+00
   1    5    9     4     2    1.0381E+01  1.8336E-12   1.1142E+01  7.614E-01  0.000E+00  0.000E+00  1.07158E+03  6.673E-01  1.000E+01  5.000E-13  1.222E+00
   1    6    8     4     3    1.1142E+01  1.2919E-12   1.1675E+01  5.330E-01  0.000E+00  0.000E+00  1.06387E+03  6.910E-01  1.000E+01  3.500E-13  1.230E+00
   1    6    8     5     1    3.0457E+01  4.7218E-01   3.0638E+01  6.533E-01  0.000E+00  0.000E+00  1.05899E+03  9.928E-01  2.956E+01  1.183E-01  1.331E+00
   1    7    7     5     2    3.0638E+01  5.9291E-01   3.0862E+01  8.167E-01  0.000E+00  0.000E+00  1.05450E+03  9.951E-01  2.968E+01  1.484E-01  1.332E+00
   1    8    7     5     3    3.0862E+01  4.1679E-01   3.1016E+01  5.717E-01  0.000E+00  0.000E+00  1.05025E+03  9.972E-01  2.979E+01  1.043E-01  1.332E+00
   1    8    6     5     4    3.1016E+01  2.9858E-01   3.1126E+01  4.083E-01  0.000E+00  0.000E+00  1.04725E+03  9.987E-01  2.987E+01  7.467E-02  1.333E+00
   1    9    6     6     1    4.9750E+01  2.9158E-12   5.1045E+01  1.295E+00  0.000E+00  0.000E+00  1.04459E+03  1.860E+00  1.200E+01  6.000E-13  1.620E+00
   1   10    7     6     2    5.1045E+01  2.9329E-12   5.2341E+01  1.295E+00  0.000E+00  0.000E+00  1.04007E+03  1.888E+00  1.200E+01  6.000E-13  1.629E+00
   1   11    7     6     3    5.2341E+01  2.9498E-12   5.3636E+01  1.295E+00  0.000E+00  0.000E+00  1.03555E+03  1.916E+00  1.200E+01  6.000E-13  1.639E+00
   1   12    7     6     4    5.3636E+01  2.9666E-12   5.4932E+01  1.295E+00  0.000E+00  0.000E+00  1.03104E+03  1.944E+00  1.200E+01  6.000E-13  1.648E+00
   1   13    7     6     5    5.4932E+01  6.8344E-11   5.5450E+01  5.182E-01  0.000E+00  0.000E+00  1.02787E+03  1.964E+00  1.200E+01  2.400E-11  9.492E-01
   1   14    9     7     1    1.5000E+02  1.5461E+00   1.4967E+02  1.218E+00  0.000E+00  0.000E+00  1.03987E+03  2.290E+00  5.531E+01  5.594E-01  9.212E-01
   1   13    8     7     2    1.4967E+02  2.5192E+00   1.4849E+02  1.340E+00  0.000E+00  0.000E+00  1.03479E+03  2.286E+00  5.529E+01  6.152E-01  1.365E+00
   1   13    7     7     3    1.4849E+02  2.6121E+00   1.4710E+02  1.218E+00  0.000E+00  0.000E+00  1.02970E+03  2.280E+00  5.526E+01  5.589E-01  1.558E+00
   1   13    6     8     1    2.0255E+02  2.2046E+00   2.0685E+02  6.509E+00  0.000E+00  0.000E+00  1.02504E+03  3.165E+00  4.589E+01  4.677E-01  1.571E+00
   1   13    5     8     2    2.0685E+02  1.3796E+00   2.1198E+02  6.509E+00  0.000E+00  0.000E+00  1.01882E+03  3.192E+00  4.629E+01  4.717E-01  9.749E-01
   1   13    4     8     3    2.1198E+02  3.7292E-01   2.1812E+02  6.509E+00  0.000E+00  0.000E+00  1.01260E+03  3.224E+00  4.675E+01  4.764E-01  2.609E-01
   1   13    3     8     4    2.1812E+02 -6.8845E-01   2.2531E+02  6.509E+00  0.000E+00  0.000E+00  1.00639E+03  3.261E+00  4.729E+01  4.819E+00 -4.762E-02
   1   13    2     8     5    2.2531E+02 -7.5721E-01   2.3258E+02  6.509E+00  0.000E+00  0.000E+00  1.00018E+03  3.301E+00  4.786E+01  4.877E+00 -5.175E-02
   1   13    1     8     6    2.3258E+02 -9.2789E-01   2.3741E+02  3.905E+00  0.000E+00  0.000E+00  9.95208E+02  3.333E+00  4.833E+01  2.955E+00 -1.047E-01



 UBDSV3 SAVING "     NETRECHARGE" ON UNIT 100 AT TIME STEP     1, STRESS PERIOD   2
 UBDSV3 SAVING "    NETDISCHARGE" ON UNIT 101 AT TIME STEP     1, STRESS PERIOD   2
 UBDSV3 SAVING "           GW ET" ON UNIT  61 AT TIME STEP     1, STRESS PERIOD   2
 UBDSV3 SAVING "    UZF RECHARGE" ON UNIT  61 AT TIME STEP     1, STRESS PERIOD   2
 UBDSV3 SAVING " SURFACE LEAKAGE" ON UNIT  61 AT TIME STEP     1, STRESS PERIOD   2
 UBDSV3 SAVING "       HORT+DUNN" ON UNIT  61 AT TIME STEP     1, STRESS PERIOD   2
 UBDSV3 SAVING "  STORAGE CHANGE" ON UNIT  61 AT TIME STEP     1, STRESS PERIOD   2


UNSATURATED ZONE PACKAGE VOLUMETRIC BUDGET FOR  TIME STEP     1 STRESS PERIOD    2
  ------------------------------------------------------------------------------



     CUMULATIVE VOLUMES      L**3       RATES FOR THIS TIME STEP      L**3/T
     ------------------                 ------------------------

           IN:                                      IN:
           ---                                      ---
        INFILTRATION =     7861067.8926          INFILTRATION =           2.9000

          OUT:                                     OUT:
          ----                                     ----
              UZF ET =        1357.7708                UZF ET =           0.0164
        UZF RECHARGE =     7624500.2249          UZF RECHARGE =           0.0399

            IN - OUT =      235209.8969              IN - OUT =           2.8437

          STORAGE:                                 STORAGE:
          --------                                 --------
      STORAGE CHANGE =      235209.9014        STORAGE CHANGE =           2.8437

 PERCENT DISCREPANCY IS DIFFERENCE BETWEEN IN-OUT MINUS CHANGE IN STORAGE
 DIVIDED BY THE AVERAGE OF IN AND OUT TIMES 100

 PERCENT DISCREPANCY =           0.00     PERCENT DISCREPANCY =           0.00






1
  VOLUMETRIC BUDGET FOR ENTIRE MODEL AT END OF TIME STEP    1, STRESS PERIOD   2
  ------------------------------------------------------------------------------

     CUMULATIVE VOLUMES      L**3       RATES FOR THIS TIME STEP      L**3/T
     ------------------                 ------------------------

           IN:                                      IN:
           ---                                      ---
             STORAGE =     2853886.2500               STORAGE =          34.5034
       CONSTANT HEAD =           0.0000         CONSTANT HEAD =           0.0000
               WELLS =           0.0000                 WELLS =           0.0000
     HEAD DEP BOUNDS =      812957.8125       HEAD DEP BOUNDS =           0.2999
      STREAM LEAKAGE =    37501008.0000        STREAM LEAKAGE =          14.8598
        UZF RECHARGE =     7624505.5000          UZF RECHARGE =       3.9900E-02
               GW ET =           0.0000                 GW ET =           0.0000
     SURFACE LEAKAGE =           0.0000       SURFACE LEAKAGE =           0.0000

            TOTAL IN =    48792356.0000              TOTAL IN =          49.7031

          OUT:                                     OUT:
          ----                                     ----
             STORAGE =       65914.5156               STORAGE =           0.7969
       CONSTANT HEAD =           0.0000         CONSTANT HEAD =           0.0000
               WELLS =    29588522.0000                 WELLS =          40.0000
     HEAD DEP BOUNDS =      775289.7500       HEAD DEP BOUNDS =           0.2858
      STREAM LEAKAGE =    14560915.0000        STREAM LEAKAGE =           2.3735
        UZF RECHARGE =           0.0000          UZF RECHARGE =           0.0000
               GW ET =     3801837.5000                 GW ET =           6.2486
     SURFACE LEAKAGE =           0.0000       SURFACE LEAKAGE =           0.0000

           TOTAL OUT =    48792476.0000             TOTAL OUT =          49.7049

            IN - OUT =        -120.0000              IN - OUT =      -1.7509E-03

 PERCENT DISCREPANCY =          -0.00     PERCENT DISCREPANCY =          -0.00






         TIME SUMMARY AT END OF TIME STEP    1 IN STRESS PERIOD    2
                    SECONDS     MINUTES      HOURS       DAYS        YEARS
                    -----------------------------------------------------------
   TIME STEP LENGTH  82713.      1378.6      22.976     0.95733     2.62102E-03
 STRESS PERIOD TIME  82713.      1378.6      22.976     0.95733     2.62102E-03
         TOTAL TIME 2.71071E+06  45179.      752.98      31.374     8.58973E-02
1
 
 SOLVING FOR HEAD 
                                                   Max.-Head-Change                         Max.-Flux-Residual
  Residual-Control   Outer-Iter.   Inner-Iter.     Column Row Layer    Maximum-Head-Change  Column Row Layer    Maximum-Flux-Residual          L2-NORM 
          0                 1           2             4    8     1      -0.5999158570E-01       4    8    1        -0.3014502494E+01      0.9522596467E+01
          0                 2           2             4    8     1       0.5944601367E-02       4    8    1         0.3014490312E+00      0.9518601070E+00
          0                 3           2             4    8     1      -0.5301550964E-03       4    8    1        -0.2713042814E-01      0.8565746386E-01
          0                 4           1             4    8     1       0.4208009527E-04       4    8    1         0.2173147753E-02      0.6860895972E-02

    ------------------------------------------------
       NWT REQUIRED            4 OUTER ITERATIONS 
       AND A TOTAL OF          7 INNER ITERATIONS.
    ------------------------------------------------

 OUTPUT CONTROL WAS SPECIFIED FOR A NONEXISTENT TIME STEP
 OR OUTPUT CONTROL DATA ARE NOT ENTERED IN ASCENDING ORDER
 OUTPUT CONTROL STRESS PERIOD    1   TIME STEP   10
 MODEL STRESS PERIOD    2   TIME STEP    2
 APPLYING THE SPECIFIED OUTPUT CONTROL TO THE CURRENT TIME STEP

 OUTPUT CONTROL FOR STRESS PERIOD    2   TIME STEP    2
    PRINT BUDGET
    SAVE BUDGET

            WELLS   PERIOD    2   STEP   2
 WELL      1   LAYER   1   ROW     6   COL     4   RATE    -4.00000    
 WELL      2   LAYER   1   ROW     6   COL     5   RATE    -4.00000    
 WELL      3   LAYER   1   ROW     7   COL     4   RATE    -4.00000    
 WELL      4   LAYER   1   ROW     7   COL     5   RATE    -4.00000    
 WELL      5   LAYER   1   ROW     8   COL     4   RATE    -4.00000    
 WELL      6   LAYER   1   ROW     8   COL     5   RATE    -4.00000    
 WELL      7   LAYER   1   ROW     9   COL     4   RATE    -4.00000    
 WELL      8   LAYER   1   ROW     9   COL     5   RATE    -4.00000    
 WELL      9   LAYER   1   ROW    10   COL     4   RATE    -4.00000    
 WELL     10   LAYER   1   ROW    10   COL     5   RATE    -4.00000    

  HEAD DEP BOUNDS   PERIOD    2   STEP     2
 BOUNDARY      1   LAYER   1   ROW    13   COL     1   RATE   -0.285675    
 BOUNDARY      2   LAYER   1   ROW    14   COL     9   RATE    0.299935    



 STREAM LISTING     PERIOD      2   STEP        2

 LAYER ROW COL. STREAM  RCH.  FLOW INTO     FLOW TO   FLOW OUT OF   OVRLND.     DIRECT     STREAM       STREAM     STREAM     STREAM   STREAMBED  STREAMBED
                SEG.NO.  NO.  STRM. RCH.    AQUIFER    STRM. RCH.    RUNOFF     PRECIP       ET          HEAD       DEPTH      WIDTH   CONDCTNC.   GRADIENT

   1    1    1     1     1    2.5000E+01  2.4641E-01   2.5300E+01  5.466E-01  0.000E+00  0.000E+00  1.09423E+03  1.182E+00  1.309E+01  5.891E-02  1.394E+00
   1    2    2     1     2    2.5300E+01  3.8602E-01   2.5765E+01  8.503E-01  0.000E+00  0.000E+00  1.08925E+03  1.188E+00  1.317E+01  9.217E-02  1.396E+00
[...]

            TOTAL IN =   992303296.0000              TOTAL IN =          20.4588

          OUT:                                     OUT:
          ----                                     ----
             STORAGE =   159482848.0000               STORAGE =          12.3343
       CONSTANT HEAD =           0.0000         CONSTANT HEAD =           0.0000
               WELLS =   578160000.0000                 WELLS =           0.0000
     HEAD DEP BOUNDS =     8509039.0000       HEAD DEP BOUNDS =           0.2719
      STREAM LEAKAGE =    73571624.0000        STREAM LEAKAGE =           1.8769
        UZF RECHARGE =           0.0000          UZF RECHARGE =           0.0000
               GW ET =   172594752.0000                 GW ET =           5.9754
     SURFACE LEAKAGE =           0.0000       SURFACE LEAKAGE =           0.0000

           TOTAL OUT =   992318336.0000             TOTAL OUT =          20.4584

            IN - OUT =      -15040.0000              IN - OUT =       3.8147E-04

 PERCENT DISCREPANCY =          -0.00     PERCENT DISCREPANCY =           0.00






         TIME SUMMARY AT END OF TIME STEP   10 IN STRESS PERIOD   12
                    SECONDS     MINUTES      HOURS       DAYS        YEARS
                    -----------------------------------------------------------
   TIME STEP LENGTH 1.95033E+05  3250.6      54.176      2.2573     6.18023E-03
 STRESS PERIOD TIME 1.31823E+06  21971.      366.18      15.257     4.17723E-02
         TOTAL TIME 3.02262E+07 5.03770E+05  8396.2      349.84     0.95781    
1
 
 SOLVING FOR HEAD 
                                                   Max.-Head-Change                         Max.-Flux-Residual
  Residual-Control   Outer-Iter.   Inner-Iter.     Column Row Layer    Maximum-Head-Change  Column Row Layer    Maximum-Flux-Residual          L2-NORM 
          0                 1           2             4    9     1       0.5999289892E-01       4    9    1         0.1291521000E+01      0.3917563080E+01
          0                 2           2             4    9     1      -0.5944808188E-02       4    9    1        -0.1291536462E+00      0.3917593563E+00
          0                 3           2             4    9     1       0.5301727671E-03       4    9    1         0.1162381441E-01      0.3525859286E-01
          0                 4           1             4    9     1      -0.4208150346E-04       4    9    1        -0.9310678934E-03      0.2824264781E-02

    ------------------------------------------------
       NWT REQUIRED            4 OUTER ITERATIONS 
       AND A TOTAL OF          7 INNER ITERATIONS.
    ------------------------------------------------

 NO OUTPUT CONTROL FOR STRESS PERIOD   12   TIME STEP   11
 
 SOLVING FOR HEAD 
                                                   Max.-Head-Change                         Max.-Flux-Residual
  Residual-Control   Outer-Iter.   Inner-Iter.     Column Row Layer    Maximum-Head-Change  Column Row Layer    Maximum-Flux-Residual          L2-NORM 
          0                 1           2             4    9     1       0.6488127048E-01       4    9    1         0.1273384125E+01      0.3792677656E+01
          0                 2           2             4    9     1      -0.6429227991E-02       4    9    1        -0.1273404969E+00      0.3792719195E+00
          0                 3           2             4    9     1       0.5733743107E-03       4    9    1         0.1146062567E-01      0.3413477918E-01
          0                 4           1             4    9     1      -0.4551054893E-04       4    9    1        -0.9179965100E-03      0.2734237599E-02

    ------------------------------------------------
       NWT REQUIRED            4 OUTER ITERATIONS 
       AND A TOTAL OF          7 INNER ITERATIONS.
    ------------------------------------------------

 NO OUTPUT CONTROL FOR STRESS PERIOD   12   TIME STEP   12
 
 SOLVING FOR HEAD 
                                                   Max.-Head-Change                         Max.-Flux-Residual
  Residual-Control   Outer-Iter.   Inner-Iter.     Column Row Layer    Maximum-Head-Change  Column Row Layer    Maximum-Flux-Residual          L2-NORM 
          0                 1           2             4    8     1       0.7016378686E-01       4    9    1         0.1251950715E+01      0.3668720560E+01
          0                 2           2             4    8     1      -0.6952670799E-02       4    9    1        -0.1251977727E+00      0.3668773815E+00
          0                 3           2             4    8     1       0.6200563568E-03       4    9    1         0.1126777441E-01      0.3301937389E-01
          0                 4           1             4    8     1      -0.4921585055E-04       4    9    1        -0.9025491697E-03      0.2644929809E-02

    ------------------------------------------------
       NWT REQUIRED            4 OUTER ITERATIONS 
       AND A TOTAL OF          7 INNER ITERATIONS.
    ------------------------------------------------

 NO OUTPUT CONTROL FOR STRESS PERIOD   12   TIME STEP   13
 
 SOLVING FOR HEAD 
                                                   Max.-Head-Change                         Max.-Flux-Residual
  Residual-Control   Outer-Iter.   Inner-Iter.     Column Row Layer    Maximum-Head-Change  Column Row Layer    Maximum-Flux-Residual          L2-NORM 
          0                 1           2             4    8     1       0.7586663308E-01       4    8    1         0.1230799657E+01      0.3545948096E+01
          0                 2           2             4    8     1      -0.7517807716E-02       4    8    1        -0.1230822520E+00      0.3546013286E+00
          0                 3           2             4    8     1       0.6704563612E-03       4    8    1         0.1107738160E-01      0.3191460999E-01
          0                 4           1             4    8     1      -0.5321626174E-04       4    8    1        -0.8872986764E-03      0.2556454976E-02

    ------------------------------------------------
       NWT REQUIRED            4 OUTER ITERATIONS 
       AND A TOTAL OF          7 INNER ITERATIONS.
    ------------------------------------------------

 NO OUTPUT CONTROL FOR STRESS PERIOD   12   TIME STEP   14
 
 SOLVING FOR HEAD 
                                                   Max.-Head-Change                         Max.-Flux-Residual
  Residual-Control   Outer-Iter.   Inner-Iter.     Column Row Layer    Maximum-Head-Change  Column Row Layer    Maximum-Flux-Residual          L2-NORM 
          0                 1           2             4    8     1       0.8179739326E-01       4    8    1         0.1209852765E+01      0.3424552222E+01
          0                 2           2             4    8     1      -0.8105541749E-02       4    8    1        -0.1209882912E+00      0.3424629162E+00
          0                 3           2             4    8     1       0.7228715056E-03       4    8    1         0.1088891796E-01      0.3082220025E-01
          0                 4           1             4    8     1      -0.5737662046E-04       4    8    1        -0.8722027787E-03      0.2468969599E-02

    ------------------------------------------------
       NWT REQUIRED            4 OUTER ITERATIONS 
       AND A TOTAL OF          7 INNER ITERATIONS.
    ------------------------------------------------

 OUTPUT CONTROL FOR STRESS PERIOD   12   TIME STEP   15
    PRINT BUDGET
    PRINT HEAD FOR ALL LAYERS
    SAVE HEAD FOR ALL LAYERS
    SAVE BUDGET

  HEAD DEP BOUNDS   PERIOD   12   STEP    15
 BOUNDARY      1   LAYER   1   ROW    13   COL     1   RATE   -0.271700    
 BOUNDARY      2   LAYER   1   ROW    14   COL     9   RATE    0.302842    



 STREAM LISTING     PERIOD     12   STEP       15

 LAYER ROW COL. STREAM  RCH.  FLOW INTO     FLOW TO   FLOW OUT OF   OVRLND.     DIRECT     STREAM       STREAM     STREAM     STREAM   STREAMBED  STREAMBED
                SEG.NO.  NO.  STRM. RCH.    AQUIFER    STRM. RCH.    RUNOFF     PRECIP       ET          HEAD       DEPTH      WIDTH   CONDCTNC.   GRADIENT

   1    1    1     1     1    2.5000E+01  2.4523E-01   2.4789E+01  3.416E-02  0.000E+00  0.000E+00  1.09423E+03  1.179E+00  1.304E+01  5.869E-02  1.393E+00
   1    2    2     1     2    2.4789E+01  3.7953E-01   2.4463E+01  5.315E-02  0.000E+00  0.000E+00  1.08923E+03  1.175E+00  1.299E+01  9.091E-02  1.392E+00
   1    3    3     1     3    2.4463E+01  3.2343E-01   2.4185E+01  4.555E-02  0.000E+00  0.000E+00  1.08359E+03  1.170E+00  1.293E+01  7.756E-02  1.390E+00
   1    3    4     1     4    2.4185E+01  2.9763E-01   2.3929E+01  4.214E-02  0.000E+00  0.000E+00  1.07857E+03  1.166E+00  1.287E+01  7.144E-02  1.389E+00
   1    4    5     2     1    1.3929E+01  0.0000E+00   1.3929E+01  0.000E+00  0.000E+00  0.000E+00  1.07278E+03  8.502E-01  1.200E+01  0.000E+00  1.283E+00
   1    5    6     2     2    1.3929E+01  0.0000E+00   1.3929E+01  0.000E+00  0.000E+00  0.000E+00  1.06736E+03  8.502E-01  1.200E+01  0.000E+00  1.283E+00
   1    6    6     2     3    1.3929E+01  0.0000E+00   1.3929E+01  0.000E+00  0.000E+00  0.000E+00  1.06264E+03  8.502E-01  1.200E+01  0.000E+00  1.283E+00
   1    7    6     2     4    1.3929E+01  0.0000E+00   1.3929E+01  0.000E+00  0.000E+00  0.000E+00  1.05793E+03  8.502E-01  1.200E+01  0.000E+00  1.283E+00
   1    8    6     2     5    1.3929E+01  0.0000E+00   1.3929E+01  0.000E+00  0.000E+00  0.000E+00  1.05321E+03  8.502E-01  1.200E+01  0.000E+00  1.283E+00
   1    3    5     3     1    1.0000E+01  2.8252E-01   9.9038E+00  1.864E-01  0.000E+00  0.000E+00  1.07555E+03  1.909E+00  9.636E+00  7.227E-02  1.955E+00
   1    3    6     3     2    9.9038E+00  2.4905E-01   9.8412E+00  1.864E-01  0.000E+00  0.000E+00  1.07264E+03  1.727E+00  8.909E+00  6.682E-02  1.864E+00
   1    3    7     3     3    9.8412E+00  1.9718E-01   9.8117E+00  1.677E-01  0.000E+00  0.000E+00  1.06987E+03  1.555E+00  8.218E+00  5.547E-02  1.777E+00
   1    4    8     3     4    9.8117E+00  2.2567E-01   9.8097E+00  2.236E-01  0.000E+00  0.000E+00  1.06682E+03  1.364E+00  7.455E+00  6.709E-02  1.682E+00
   1    5    8     3     5    9.8097E+00  1.5790E-01   9.8381E+00  1.864E-01  0.000E+00  0.000E+00  1.06362E+03  1.164E+00  6.655E+00  4.991E-02  1.582E+00
   1    6    8     3     6    9.8381E+00  5.5980E-02   9.8567E+00  7.455E-02  0.000E+00  0.000E+00  1.06158E+03  1.036E+00  6.145E+00  1.844E-02  1.518E+00
   1    5   10     4     1    1.0000E+01  0.0000E+00   1.0023E+01  2.273E-02  0.000E+00  0.000E+00  1.07837E+03  6.389E-01  1.000E+01  0.000E+00  1.213E+00
   1    5    9     4     2    1.0023E+01  0.0000E+00   1.0068E+01  4.545E-02  0.000E+00  0.000E+00  1.07155E+03  6.403E-01  1.000E+01  0.000E+00  1.213E+00
   1    6    8     4     3    1.0068E+01  0.0000E+00   1.0100E+01  3.182E-02  0.000E+00  0.000E+00  1.06382E+03  6.417E-01  1.000E+01  0.000E+00  1.214E+00
   1    6    8     5     1    1.9957E+01  3.5132E-01   1.9652E+01  4.667E-02  0.000E+00  0.000E+00  1.05885E+03  8.531E-01  2.280E+01  9.118E-02  1.284E+00
   1    7    7     5     2    1.9652E+01  4.3403E-01   1.9276E+01  5.833E-02  0.000E+00  0.000E+00  1.05435E+03  8.479E-01  2.256E+01  1.128E-01  1.283E+00
   1    8    7     5     3    1.9276E+01  3.0046E-01   1.9017E+01  4.083E-02  0.000E+00  0.000E+00  1.05009E+03  8.430E-01  2.234E+01  7.818E-02  1.281E+00
   1    8    6     5     4    1.9017E+01  2.1293E-01   1.8833E+01  2.917E-02  0.000E+00  0.000E+00  1.04709E+03  8.396E-01  2.218E+01  5.546E-02  1.280E+00
   1    9    6     6     1    3.2762E+01  0.0000E+00   3.2864E+01  1.023E-01  0.000E+00  0.000E+00  1.04416E+03  1.437E+00  1.200E+01  0.000E+00  1.479E+00
   1   10    7     6     2    3.2864E+01  0.0000E+00   3.2967E+01  1.023E-01  0.000E+00  0.000E+00  1.03962E+03  1.440E+00  1.200E+01  0.000E+00  1.480E+00
   1   11    7     6     3    3.2967E+01  0.0000E+00   3.3069E+01  1.023E-01  0.000E+00  0.000E+00  1.03508E+03  1.443E+00  1.200E+01  0.000E+00  1.481E+00
   1   12    7     6     4    3.3069E+01  0.0000E+00   3.3171E+01  1.023E-01  0.000E+00  0.000E+00  1.03054E+03  1.446E+00  1.200E+01  0.000E+00  1.482E+00
   1   13    7     6     5    3.3171E+01  0.0000E+00   3.3212E+01  4.091E-02  0.000E+00  0.000E+00  1.02736E+03  1.447E+00  1.200E+01  0.000E+00  8.911E-01
   1   14    9     7     1    1.5000E+02  1.5869E+00   1.4850E+02  8.871E-02  0.000E+00  0.000E+00  1.03987E+03  2.287E+00  5.529E+01  5.593E-01  9.458E-01
   1   13    8     7     2    1.4850E+02  2.6126E+00   1.4599E+02  9.758E-02  0.000E+00  0.000E+00  1.03478E+03  2.277E+00  5.524E+01  6.146E-01  1.417E+00
   1   13    7     7     3    1.4599E+02  2.7896E+00   1.4329E+02  8.871E-02  0.000E+00  0.000E+00  1.02968E+03  2.263E+00  5.518E+01  5.581E-01  1.666E+00
   1   13    6     8     1    1.7650E+02  2.2635E+00   1.7484E+02  6.027E-01  0.000E+00  0.000E+00  1.02486E+03  2.989E+00  4.334E+01  4.416E-01  1.709E+00
   1   13    5     8     2    1.7484E+02  1.6424E+00   1.7380E+02  6.027E-01  0.000E+00  0.000E+00  1.01861E+03  2.980E+00  4.321E+01  4.403E-01  1.243E+00
   1   13    4     8     3    1.7380E+02  6.8745E-01   1.7371E+02  6.027E-01  0.000E+00  0.000E+00  1.01235E+03  2.976E+00  4.316E+01  4.398E-01  5.210E-01
   1   13    3     8     4    1.7371E+02 -2.3869E-01   1.7455E+02  6.027E-01  0.000E+00  0.000E+00  1.00610E+03  2.979E+00  4.319E+01  4.402E+00 -1.808E-02
   1   13    2     8     5    1.7455E+02 -8.5553E-01   1.7601E+02  6.027E-01  0.000E+00  0.000E+00  9.99861E+02  2.986E+00  4.330E+01  4.413E+00 -6.463E-02
   1   13    1     8     6    1.7601E+02 -7.4479E-01   1.7712E+02  3.616E-01  0.000E+00  0.000E+00  9.94869E+02  2.994E+00  4.342E+01  2.655E+00 -9.352E-02



 UBDSV3 SAVING "     NETRECHARGE" ON UNIT 100 AT TIME STEP    15, STRESS PERIOD  12
 UBDSV3 SAVING "    NETDISCHARGE" ON UNIT 101 AT TIME STEP    15, STRESS PERIOD  12
 UBDSV3 SAVING "           GW ET" ON UNIT  61 AT TIME STEP    15, STRESS PERIOD  12
 UBDSV3 SAVING "    UZF RECHARGE" ON UNIT  61 AT TIME STEP    15, STRESS PERIOD  12
 UBDSV3 SAVING " SURFACE LEAKAGE" ON UNIT  61 AT TIME STEP    15, STRESS PERIOD  12
 UBDSV3 SAVING "       HORT+DUNN" ON UNIT  61 AT TIME STEP    15, STRESS PERIOD  12
 UBDSV3 SAVING "  STORAGE CHANGE" ON UNIT  61 AT TIME STEP    15, STRESS PERIOD  12


UNSATURATED ZONE PACKAGE VOLUMETRIC BUDGET FOR  TIME STEP    15 STRESS PERIOD   12
  ------------------------------------------------------------------------------



     CUMULATIVE VOLUMES      L**3       RATES FOR THIS TIME STEP      L**3/T
     ------------------                 ------------------------

           IN:                                      IN:
           ---                                      ---
        INFILTRATION =    91454390.9658          INFILTRATION =           2.9000

          OUT:                                     OUT:
          ----                                     ----
              UZF ET =    29376251.3620                UZF ET =           1.1749
        UZF RECHARGE =     7880960.6654          UZF RECHARGE =       0.0000E+00

            IN - OUT =    54197178.9385              IN - OUT =           1.7251

          STORAGE:                                 STORAGE:
          --------                                 --------
      STORAGE CHANGE =    54197177.5854        STORAGE CHANGE =           1.7251

 PERCENT DISCREPANCY IS DIFFERENCE BETWEEN IN-OUT MINUS CHANGE IN STORAGE
 DIVIDED BY THE AVERAGE OF IN AND OUT TIMES 100

 PERCENT DISCREPANCY =           0.00     PERCENT DISCREPANCY =           0.00






1
              HEAD IN LAYER   1 AT END OF TIME STEP    15 IN STRESS PERIOD   12
  -----------------------------------------------------------------------------

           1       2       3       4       5       6       7       8       9      10
 ...................................................................................
   1  1029.16 1025.59 6999.00 6999.00 6999.00 6999.00 6999.00 6999.00 6999.00 6999.00
   2  1025.89 1021.00 1018.93 6999.00 6999.00 1017.36 1017.65 1017.80 6999.00 6999.00
   3  6999.00 1017.89 1016.51 1015.44 1015.31 1015.86 1016.69 1016.99 6999.00 6999.00
   4  1015.90 1015.83 1014.77 1013.79 1013.45 1013.61 1014.56 1016.15 1015.98 6999.00
   5  1015.09 1014.07 1012.90 1012.21 1012.32 1012.84 1013.52 1014.35 1014.92 1015.36
   6  1014.27 1012.85 1011.33 1010.69 1011.06 1012.09 1013.13 1014.07 1014.83 1015.66
   7  1013.72 1011.93 1010.31 1009.72 1010.30 1011.61 1012.93 1013.68 1015.10 6999.00
   8  6999.00 1011.25 1009.79 1009.34 1010.06 1011.48 1012.75 1014.02 1016.06 6999.00
   9  6999.00 1010.78 1009.74 1009.55 1010.34 1011.75 1013.03 1014.87 1017.63 6999.00
  10  6999.00 1010.29 1009.99 1010.26 1011.17 1012.71 1014.06 1016.30 1019.32 1020.27
  11  6999.00 1009.08 1009.91 1011.16 1012.50 1014.39 1016.21 1019.15 1022.58 6999.00
  12  1000.64 1005.33 1008.67 1011.16 1013.69 1016.62 1019.35 1024.29 1028.29 6999.00
  13   995.15 1000.06 1006.16 1010.79 1014.88 1019.74 1024.68 1030.53 1033.62 6999.00
  14  6999.00 1005.41 1008.08 1011.89 1015.89 1020.35 1025.68 1032.01 1037.03 6999.00
  15  6999.00 6999.00 1011.61 1013.94 1016.95 1019.70 6999.00 6999.00 6999.00 6999.00

 HEAD WILL BE SAVED ON UNIT   58 AT END OF TIME STEP   15, STRESS PERIOD   12
1
  VOLUMETRIC BUDGET FOR ENTIRE MODEL AT END OF TIME STEP   15, STRESS PERIOD  12
  ------------------------------------------------------------------------------

     CUMULATIVE VOLUMES      L**3       RATES FOR THIS TIME STEP      L**3/T
     ------------------                 ------------------------

           IN:                                      IN:
           ---                                      ---
             STORAGE =   518547584.0000               STORAGE =           4.3046
       CONSTANT HEAD =           0.0000         CONSTANT HEAD =           0.0000
               WELLS =           0.0000                 WELLS =           0.0000
     HEAD DEP BOUNDS =     9504257.0000       HEAD DEP BOUNDS =           0.3028
      STREAM LEAKAGE =   482732480.0000        STREAM LEAKAGE =          15.2954
        UZF RECHARGE =     7880964.5000          UZF RECHARGE =           0.0000
               GW ET =           0.0000                 GW ET =           0.0000
     SURFACE LEAKAGE =           0.0000       SURFACE LEAKAGE =           0.0000

            TOTAL IN =  1018665280.0000              TOTAL IN =          19.9028

          OUT:                                     OUT:
          ----                                     ----
             STORAGE =   175251536.0000               STORAGE =          11.8363
       CONSTANT HEAD =           0.0000         CONSTANT HEAD =           0.0000
               WELLS =   578160000.0000                 WELLS =           0.0000
     HEAD DEP BOUNDS =     8864980.0000       HEAD DEP BOUNDS =           0.2717
      STREAM LEAKAGE =    75998320.0000        STREAM LEAKAGE =           1.8390
        UZF RECHARGE =           0.0000          UZF RECHARGE =           0.0000
               GW ET =   180404928.0000                 GW ET =           5.9554
     SURFACE LEAKAGE =           0.0000       SURFACE LEAKAGE =           0.0000

           TOTAL OUT =  1018679744.0000             TOTAL OUT =          19.9024

            IN - OUT =      -14464.0000              IN - OUT =       3.8528E-04

 PERCENT DISCREPANCY =          -0.00     PERCENT DISCREPANCY =           0.00






         TIME SUMMARY AT END OF TIME STEP   15 IN STRESS PERIOD   12
                    SECONDS     MINUTES      HOURS       DAYS        YEARS
                    -----------------------------------------------------------
   TIME STEP LENGTH 3.14103E+05  5235.0      87.251      3.6354     9.95332E-03
 STRESS PERIOD TIME 2.62800E+06  43800.      730.00      30.417     8.32763E-02
         TOTAL TIME 3.15360E+07 5.25600E+05  8760.0      365.00     0.99932    
1

 Run end date and time (yyyy/mm/dd hh:mm:ss): 2017/08/09 16:39:00
 Elapsed run time:  0.773 Seconds

