                                  MODFLOW-NWT-SWR1 
      U.S. GEOLOGICAL SURVEY MODULAR FINITE-DIFFERENCE GROUNDWATER-FLOW MODEL
                            VERSION 1.1.0, 9/11/2015
                    BASED ON MODFLOW-2005 VERSION 1.11.00 08/30/2013

 LIST FILE: swi2ex4sww.lst
                         UNIT    2

 OPENING swi2ex4sww.dis
 FILE TYPE:DIS   UNIT   11   STATUS:OLD    
 FORMAT:FORMATTED              ACCESS:SEQUENTIAL          

 OPENING swi2ex4sww.bas
 FILE TYPE:BAS6   UNIT   13   STATUS:OLD    
 FORMAT:FORMATTED              ACCESS:SEQUENTIAL          

 OPENING swi2ex4sww.ghb
 FILE TYPE:GHB   UNIT   23   STATUS:OLD    
 FORMAT:FORMATTED              ACCESS:SEQUENTIAL          

 OPENING swi2ex4sww.wel
 FILE TYPE:WEL   UNIT   20   STATUS:OLD    
 FORMAT:FORMATTED              ACCESS:SEQUENTIAL          

 OPENING swi2ex4sww.upw
 FILE TYPE:UPW   UNIT   15   STATUS:OLD    
 FORMAT:FORMATTED              ACCESS:SEQUENTIAL          

 OPENING swi2ex4sww.swi
 FILE TYPE:SWI2   UNIT   29   STATUS:OLD    
 FORMAT:FORMATTED              ACCESS:SEQUENTIAL          

 OPENING swi2ex4sww.zta
 FILE TYPE:DATA(BINARY)   UNIT   55   STATUS:REPLACE
 FORMAT:BINARY                 ACCESS:SEQUENTIAL          

 OPENING swi2ex4sww.oc
 FILE TYPE:OC   UNIT   14   STATUS:OLD    
 FORMAT:FORMATTED              ACCESS:SEQUENTIAL          

 OPENING swi2ex4sww.hds
 FILE TYPE:DATA(BINARY)   UNIT   51   STATUS:REPLACE
 FORMAT:BINARY                 ACCESS:SEQUENTIAL          

 OPENING swi2ex4sww.nwt
 FILE TYPE:NWT   UNIT   27   STATUS:OLD    
 FORMAT:FORMATTED              ACCESS:SEQUENTIAL          

 BAS -- BASIC PACKAGE, VERSION 1.0.7, 1/15/2013 INPUT READ FROM UNIT   13
 
 MODFLOW was compiled using mixed precision
 Precision of REAL variables:           6
 Precision of DOUBLE PRECISION variables:          15

 DISCRETIZATION INPUT DATA READ FROM UNIT   11
 # Discretization file for MODFLOW, generated by Flopy.
    2 LAYERS        61 ROWS        61 COLUMNS
    3 STRESS PERIOD(S) IN SIMULATION
 MODEL TIME UNIT IS DAYS
 MODEL LENGTH UNIT IS METERS
  Confining bed flag for each layer:
   0   0

                     DELR =   50.0000    

                     DELC =   50.0000    



           TOP ELEVATION OF LAYER 1
 READING ON UNIT   11 WITH FORMAT:            (5G13.0) 



             MODEL LAYER BOTTOM EL. FOR LAYER   1
 READING ON UNIT   11 WITH FORMAT:            (5G13.0) 



             MODEL LAYER BOTTOM EL. FOR LAYER   2
 READING ON UNIT   11 WITH FORMAT:            (5G13.0) 


 STRESS PERIOD     LENGTH       TIME STEPS     MULTIPLIER FOR DELT    SS FLAG
 ----------------------------------------------------------------------------
        1         73000.00       1000                    1.000         SS
        2         4380.000        120                    1.000         SS
        3         6570.000        180                    1.000         SS

 STEADY-STATE SIMULATION



 
 # Basic package file for MODFLOW, generated by Flopy.                           
 THE FREE FORMAT OPTION HAS BEEN SELECTED



                     BOUNDARY ARRAY FOR LAYER   1
 READING ON UNIT   13 WITH FORMAT:               (5I4) 



                     BOUNDARY ARRAY FOR LAYER   2
 READING ON UNIT   13 WITH FORMAT:               (5I4) 

 AQUIFER HEAD WILL BE SET TO  -999.99     AT ALL NO-FLOW NODES (IBOUND=0).



                       INITIAL HEAD FOR LAYER   1
 READING ON UNIT   13 WITH FORMAT:            (5G13.0) 



                       INITIAL HEAD FOR LAYER   2
 READING ON UNIT   13 WITH FORMAT:            (5G13.0) 
 # Output control package file for MODFLOW, generated by Flopy. Output control by words option

 OUTPUT CONTROL IS SPECIFIED ONLY AT TIME STEPS FOR WHICH OUTPUT IS DESIRED
 HEAD PRINT FORMAT CODE IS   0    DRAWDOWN PRINT FORMAT CODE IS   0
 HEADS WILL BE SAVED ON UNIT   51    DRAWDOWNS WILL BE SAVED ON UNIT    0
 # NWT Input File
 # SWI2 example problem 4 for MODFLOW-NWT
 #HEADTOL  FLUXTOL MAXITEROUT THICKFACT LINMETH IPRNWT IBOTAV OPTIONS DBDREDUCE DBDINCREASE DBDGAMMA MOMFACT BACKFLAG MAXBACKITER BACKTOL BACKREDUCE

 NWT1 -- Newton Solver, VERSION 1.1.0, 9/11/2015
         INPUT READ FROM UNIT 27

 SIMPLE OPTION:
 DEFAULT SOLVER INPUT VALUES REFLECT NEARLY LINEAR MODEL
 ***XMD linear solver will be used***
 
   CONVERGENCE CRITERION OF   0.100000E-04 FOR HEAD SOLUTION
   AND A TOLERANCE OF   0.500000E-01 FOR FLOW SOLUTION AND 
   A MAXIMUM OF   100 OUTER ITERATIONS. 


   D-B-D REDUCTION FACTOR OF    0.970000E+00 AND 
   A D-B-D INCREASE FACTOR OF    0.100000E-03 AND 
   A D-B-D RELAXATION OF    0.000000E+00 AND 
   A MOMENTUM FACTOR OF    0.000000E+00 .


 ***BACKTRACKING IS INACTIVE***
 XMD -- LINEAR SOLUTION BY XMD PACKAGE VERSION 1.30
     BY MOTOMU IBARAKI, OHIO STATE UNIVERSITY, COLOMBUS, OH
                 INPUT READ FROM UNIT 27
 ACCELERATION METHOD                    (IACL) =         1
 NODE ORDERING FLAG                   (NORDER) =         0
 LEVEL OF FILL                         (LEVEL) =         3
 MAXIMUM NUMBER OF ORTHOGONALIZATIONS  (NORTH) =         5
 INDEX FOR USING REDUCED SYSTEM      (IREDSYS) =         1
 RESID. REDUCTION CONVERGE CRITERION  (RRCTOL) =  0.000000E+00
 INDEX FOR USING DROP TOLERANCE     (IDROPTOL) =         1
 DROP TOLERANCE VALUE                  (EPSRN) =  0.100000E-02
 CONVERGENCE CRITERIA OF           (HCLOSEXMD) =  0.100000E-03
 MAX. NUMBER OF LINEAR ITERATIONS  (MXITERXMD) =        50


 UPW1 -- UPSTREAM WEIGHTING FLOW PACKAGE, VERSION 1.0.6, 12/05/2012
         INPUT READ FROM UNIT 15

 # LPF for MODFLOW, generated by Flopy.
 CELL-BY-CELL FLOWS WILL BE SAVED ON UNIT   53
 No named parameters

   LAYER FLAGS:
 LAYER       LAYTYP          LAYAVG    CHANI           LAYVKA           LAYWET
 ---------------------------------------------------------------------------
    1             0             0     1.000E+00             0             0
    2             0             0     1.000E+00             0             0

   INTERPRETATION OF LAYER FLAGS:
                        INTERBLOCK     HORIZONTAL    DATA IN
         LAYER TYPE   TRANSMISSIVITY   ANISOTROPY   ARRAY VKA   WETTABILITY
 LAYER   (LAYTYP)        (LAYAVG)      (CHANI)     (LAYVKA)       (LAYWET)
 ---------------------------------------------------------------------------
    1      CONFINED      HARMONIC     1.000E+00    VERTICAL K  NON-WETTABLE
    2      CONFINED      HARMONIC     1.000E+00    VERTICAL K  NON-WETTABLE

    HYD. COND. ALONG ROWS =   10.0000     FOR LAYER   1

      VERTICAL HYD. COND. =  0.200000     FOR LAYER   1

    HYD. COND. ALONG ROWS =   10.0000     FOR LAYER   2

      VERTICAL HYD. COND. =  0.200000     FOR LAYER   2

 WEL -- WELL PACKAGE, VERSION 1.0.6, 12/05/2012 INPUT READ FROM UNIT   20
 # Well file for MODFLOW, generated by Flopy.
 No named parameters
 MAXIMUM OF   1683 ACTIVE WELLS AT ONE TIME
 LISTS OF WELL CELLS WILL NOT BE PRINTED
 No named parameters
  PHIRAMP WILL BE SET TO A DEFAULT VALUE OF 0.05
  WELLS WITH REDUCED PUMPING WILL BE REPORTED TO THE MAIN LISTING FILE


     0 Well parameters

 GHB -- GENERAL-HEAD BOUNDARY PACKAGE, VERSION 7, 5/2/2005
         INPUT READ FROM UNIT   23
 # GHB for MODFLOW, generated by Flopy.
 No named parameters
 MAXIMUM OF   2040 ACTIVE GHB CELLS AT ONE TIME


     0 GHB parameters


 SWI2 -- SWI PACKAGE, VERSION 2.0.0, 07/22/2013
 --------------------------------------------------
 SWI2 INPUT READ FROM UNIT 29


 # Salt Water Intrusion package file for MODFLOW-2005, generated by Flopy.
 #--Dataset 1


 SWI2 DATASET 1
 ----------------------------------------------------
 NUMBER OF SURFACES (NSRF):                         1
 TOTAL NUMBER OF ZONES:                             2
 DENSITY DISTRIBUTION OPTION (ISTRAT):              1
   VARIABLE DENSITY FLOW -- ISTRAT = 0
   STRATIFIED FLOW       -- ISTRAT = 1
 NUMBER OF SWI OBSERVATIONS (NOBS):                 0
 ZETA OUTPUT FILE UNIT NUMBER (ISWIZT):            55
 BUDGET OUTPUT FILE UNIT NUMBER (ISWICB):           0
 OBSERVATION OUTPUT FILE UNIT NUMBER (ISWIOBS):     0
 ----------------------------------------------------
 #--Dataset 2a


 SWI2 DATASET 2A
 ----------------------------------------------------
 SOLVER (NSOLVER):                                  1
   SOLVER =                      DIRECT SOLVER (DE4)
 SOLVER PRINTOUT INTERVAL (IPRSOL):               999
 SOLVER OUTPUT FLAG (MUTSOL):                       3
   0 = PRINTING EVERY ITERATION
   1 = LIMITED (TOTAL NUMBER OF ITERATIONS)
   2 = NO PRINTING
   3 = ONLY IF CONVERGENCE FAILS
 ----------------------------------------------------
 #--Dataset 3a


 SWI2 DATASET 3A
 ----------------------------------------------------
 MAXIMUM TOE SURFACE SLOPE (TOESLOPE):      0.500E-02
 MAXIMUM TIP SURFACE SLOPE (TIPSLOPE):      0.500E-02
 EXCESS SURFACE SLOPE FRACTION (ALPHA):     0.100    
 MINIMUM ZONE THICKNESS FRACTION (BETA):    0.100    
 ----------------------------------------------------



                             NUZONE
 READING ON UNIT   29 WITH FORMAT:           (20G13.0) 



                   ZETA SURFACE  1  FOR LAYER   1
 READING ON UNIT   29 WITH FORMAT:           (61G13.0) 



                   ZETA SURFACE  1  FOR LAYER   2
 READING ON UNIT   29 WITH FORMAT:           (61G13.0) 

                      SSZ =  0.200000     FOR LAYER   1

                      SSZ =  0.200000     FOR LAYER   2



                            IZONENR FOR LAYER   1
 READING ON UNIT   29 WITH FORMAT:             (61I13) 



                            IZONENR FOR LAYER   2
 READING ON UNIT   29 WITH FORMAT:             (61I13) 
1
                            STRESS PERIOD NO.    1, LENGTH =   73000.00    
                            -----------------------------------------------

                              NUMBER OF TIME STEPS =  1000

                               MULTIPLIER FOR DELT =     1.000

                            INITIAL TIME STEP SIZE =   73.00000    

   1683 WELLS

 BOUND. NO. LAYER   ROW   COL     STAGE      CONDUCTANCE         
 ----------------------------------------------------------------
      1      1      1      1       0.000           62.50    
      2      1      1      2       0.000           62.50    
      3      1      1      3       0.000           62.50    
      4      1      1      4       0.000           62.50    
      5      1      1      5       0.000           62.50    
      6      1      1      6       0.000           62.50    
      7      1      1      7       0.000           62.50    
      8      1      1      8       0.000           62.50    
      9      1      1      9       0.000           62.50    
     10      1      1     10       0.000           62.50    
     11      1      1     11       0.000           62.50    
     12      1      1     12       0.000           62.50    
     13      1      1     13       0.000           62.50    
     14      1      1     14       0.000           62.50    
     15      1      1     15       0.000           62.50    
     16      1      1     16       0.000           62.50    
     17      1      1     17       0.000           62.50    
     18      1      1     18       0.000           62.50    
     19      1      1     19       0.000           62.50    
     20      1      1     20       0.000           62.50    
     21      1      1     21       0.000           62.50    
     22      1      1     22       0.000           62.50    
     23      1      1     23       0.000           62.50    
     24      1      1     24       0.000           62.50    
     25      1      1     25       0.000           62.50    
     26      1      1     26       0.000           62.50    
     27      1      1     27       0.000           62.50    
     28      1      1     28       0.000           62.50    
     29      1      1     29       0.000           62.50    
     30      1      1     30       0.000           62.50    
     31      1      1     31       0.000           62.50    
     32      1      1     32       0.000           62.50    
     33      1      1     33       0.000           62.50    
     34      1      1     34       0.000           62.50    
     35      1      1     35       0.000           62.50    
     36      1      1     36       0.000           62.50    
     37      1      1     37       0.000           62.50    
     38      1      1     38       0.000           62.50    
     39      1      1     39       0.000           62.50    
     40      1      1     40       0.000           62.50    
     41      1      1     41       0.000           62.50    
     42      1      1     42       0.000           62.50    
     43      1      1     43       0.000           62.50    
     44      1      1     44       0.000           62.50    
     45      1      1     45       0.000           62.50    
     46      1      1     46       0.000           62.50    
     47      1      1     47       0.000           62.50    
     48      1      1     48       0.000           62.50    
     49      1      1     49       0.000           62.50    
     50      1      1     50       0.000           62.50    
     51      1      1     51       0.000           62.50    
     52      1      1     52       0.000           62.50    
     53      1      1     53       0.000           62.50    
     54      1      1     54       0.000           62.50    
     55      1      1     55       0.000           62.50    
     56      1      1     56       0.000           62.50    
     57      1      1     57       0.000           62.50    
     58      1      1     58       0.000           62.50    
     59      1      1     59       0.000           62.50    
     60      1      1     60       0.000           62.50    
     61      1      1     61       0.000           62.50    
     62      1      2      1       0.000           62.50    
     63      1      2      2       0.000           62.50    
     64      1      2      3       0.000           62.50    
     65      1      2      4       0.000           62.50    
     66      1      2      5       0.000           62.50    
     67      1      2      6       0.000           62.50    
     68      1      2      7       0.000           62.50    
     69      1      2      8       0.000           62.50    
     70      1      2      9       0.000           62.50    
     71      1      2     10       0.000           62.50    
     72      1      2     11       0.000           62.50    
     73      1      2     12       0.000           62.50    
     74      1      2     13       0.000           62.50    
     75      1      2     14       0.000           62.50    
     76      1      2     15       0.000           62.50    
     77      1      2     16       0.000           62.50    
     78      1      2     17       0.000           62.50    
     79      1      2     18       0.000           62.50    
     80      1      2     19       0.000           62.50    
     81      1      2     20       0.000           62.50    
     82      1      2     21       0.000           62.50    
     83      1      2     22       0.000           62.50    
     84      1      2     23       0.000           62.50    
     85      1      2     24       0.000           62.50    
     86      1      2     25       0.000           62.50    
     87      1      2     26       0.000           62.50    
     88      1      2     27       0.000           62.50    
     89      1      2     28       0.000           62.50    
     90      1      2     29       0.000           62.50    
     91      1      2     30       0.000           62.50    
     92      1      2     31       0.000           62.50    
     93      1      2     32       0.000           62.50    
     94      1      2     33       0.000           62.50    
     95      1      2     34       0.000           62.50    
     96      1      2     35       0.000           62.50    
     97      1      2     36       0.000           62.50    
     98      1      2     37       0.000           62.50    
     99      1      2     38       0.000           62.50    
    100      1      2     39       0.000           62.50    
    101      1      2     40       0.000           62.50    
    102      1      2     41       0.000           62.50    
    103      1      2     42       0.000           62.50    
    104      1      2     43       0.000           62.50    
    105      1      2     44       0.000           62.50    
    106      1      2     45       0.000           62.50    
    107      1      2     46       0.000           62.50    
    108      1      2     47       0.000           62.50    
    109      1      2     48       0.000           62.50    
    110      1      2     49       0.000           62.50    
    111      1      2     50       0.000           62.50    
    112      1      2     51       0.000           62.50    
    113      1      2     52       0.000           62.50    
    114      1      2     53       0.000           62.50    
    115      1      2     54       0.000           62.50    
    116      1      2     55       0.000           62.50    
    117      1      2     56       0.000           62.50    
    118      1      2     57       0.000           62.50    
    119      1      2     58       0.000           62.50    
    120      1      2     59       0.000           62.50    
    121      1      2     60       0.000           62.50    
    122      1      2     61       0.000           62.50    
    123      1      3      1       0.000           62.50    
    124      1      3      2       0.000           62.50    
    125      1      3      3       0.000           62.50    
    126      1      3      4       0.000           62.50    
    127      1      3      5       0.000           62.50    
    128      1      3      6       0.000           62.50    
    129      1      3      7       0.000           62.50    
    130      1      3      8       0.000           62.50    
    131      1      3      9       0.000           62.50    
    132      1      3     10       0.000           62.50    
    133      1      3     11       0.000           62.50    
    134      1      3     12       0.000           62.50    
    135      1      3     13       0.000           62.50    
    136      1      3     14       0.000           62.50    
    137      1      3     15       0.000           62.50    
    138      1      3     16       0.000           62.50    
    139      1      3     17       0.000           62.50    
    140      1      3     18       0.000           62.50    
    141      1      3     19       0.000           62.50    
    142      1      3     20       0.000           62.50    
    143      1      3     21       0.000           62.50    
    144      1      3     22       0.000           62.50    
    145      1      3     23       0.000           62.50    
    146      1      3     24       0.000           62.50    
    147      1      3     25       0.000           62.50    
    148      1      3     26       0.000           62.50    
    149      1      3     27       0.000           62.50    
    150      1      3     28       0.000           62.50    
    151      1      3     29       0.000           62.50    
    152      1      3     30       0.000           62.50    
    153      1      3     31       0.000           62.50    
    154      1      3     32       0.000           62.50    
    155      1      3     33       0.000           62.50    
    156      1      3     34       0.000           62.50    
    157      1      3     35       0.000           62.50    
    158      1      3     36       0.000           62.50    
    159      1      3     37       0.000           62.50    
    160      1      3     38       0.000           62.50    
    161      1      3     39       0.000           62.50    
    162      1      3     40       0.000           62.50    
    163      1      3     41       0.000           62.50    
    164      1      3     42       0.000           62.50    
    165      1      3     43       0.000           62.50    
    166      1      3     44       0.000           62.50    
    167      1      3     45       0.000           62.50    
    168      1      3     46       0.000           62.50    
    169      1      3     47       0.000           62.50    
    170      1      3     48       0.000           62.50    
    171      1      3     49       0.000           62.50    
    172      1      3     50       0.000           62.50    
    173      1      3     51       0.000           62.50    
    174      1      3     52       0.000           62.50    
    175      1      3     53       0.000           62.50    
    176      1      3     54       0.000           62.50    
    177      1      3     55       0.000           62.50    
    178      1      3     56       0.000           62.50    
    179      1      3     57       0.000           62.50    
    180      1      3     58       0.000           62.50    
    181      1      3     59       0.000           62.50    
    182      1      3     60       0.000           62.50    
    183      1      3     61       0.000           62.50    
    184      1      4      1       0.000           62.50    
    185      1      4      2       0.000           62.50    
    186      1      4      3       0.000           62.50    
    187      1      4      4       0.000           62.50    
    188      1      4      5       0.000           62.50    
    189      1      4      6       0.000           62.50    
    190      1      4      7       0.000           62.50    
    191      1      4      8       0.000           62.50    
    192      1      4      9       0.000           62.50    
    193      1      4     10       0.000           62.50    
    194      1      4     11       0.000           62.50    
    195      1      4     12       0.000           62.50    
    196      1      4     13       0.000           62.50    
    197      1      4     14       0.000           62.50    
    198      1      4     15       0.000           62.50    
    199      1      4     16       0.000           62.50    
    200      1      4     17       0.000           62.50    
    201      1      4     18       0.000           62.50    
    202      1      4     19       0.000           62.50    
    203      1      4     20       0.000           62.50    
    204      1      4     21       0.000           62.50    
    205      1      4     22       0.000           62.50    
    206      1      4     23       0.000           62.50    
    207      1      4     24       0.000           62.50    
    208      1      4     25       0.000           62.50    
    209      1      4     26       0.000           62.50    
    210      1      4     27       0.000           62.50    
    211      1      4     28       0.000           62.50    
    212      1      4     29       0.000           62.50    
    213      1      4     30       0.000           62.50    
    214      1      4     31       0.000           62.50    
    215      1      4     32       0.000           62.50    
    216      1      4     33       0.000           62.50    
    217      1      4     34       0.000           62.50    
    218      1      4     35       0.000           62.50    
    219      1      4     36       0.000           62.50    
    220      1      4     37       0.000           62.50    
    221      1      4     38       0.000           62.50    
    222      1      4     39       0.000           62.50    
    223      1      4     40       0.000           62.50    
    224      1      4     41       0.000           62.50    
    225      1      4     42       0.000           62.50    
    226      1      4     43       0.000           62.50    
    227      1      4     44       0.000           62.50    
    228      1      4     45       0.000           62.50    
    229      1      4     46       0.000           62.50    
    230      1      4     47       0.000           62.50    
    231      1      4     48       0.000           62.50    
    232      1      4     49       0.000           62.50    
    233      1      4     50       0.000           62.50    
    234      1      4     51       0.000           62.50    
    235      1      4     52       0.000           62.50    
    236      1      4     53       0.000           62.50    
    237      1      4     54       0.000           62.50    
    238      1      4     55       0.000           62.50    
    239      1      4     56       0.000           62.50    
    240      1      4     57       0.000           62.50    
    241      1      4     58       0.000           62.50    
    242      1      4     59       0.000           62.50    
    243      1      4     60       0.000           62.50    
    244      1      4     61       0.000           62.50    
    245      1      5      1       0.000           62.50    
    246      1      5      2       0.000           62.50    
    247      1      5      3       0.000           62.50    
    248      1      5      4       0.000           62.50    
    249      1      5      5       0.000           62.50    
    250      1      5      6       0.000           62.50    
    251      1      5      7       0.000           62.50    
    252      1      5      8       0.000           62.50    
    253      1      5      9       0.000           62.50    
    254      1      5     10       0.000           62.50    
    255      1      5     11       0.000           62.50    
    256      1      5     12       0.000           62.50    
    257      1      5     13       0.000           62.50    
    258      1      5     14       0.000           62.50    
    259      1      5     15       0.000           62.50    
    260      1      5     16       0.000           62.50    
    261      1      5     17       0.000           62.50    
    262      1      5     18       0.000           62.50    
    263      1      5     19       0.000           62.50    
    264      1      5     20       0.000           62.50    
    265      1      5     21       0.000           62.50    
    266      1      5     22       0.000           62.50    
    267      1      5     23       0.000           62.50    
    268      1      5     24       0.000           62.50    
    269      1      5     25       0.000           62.50    
    270      1      5     26       0.000           62.50    
    271      1      5     27       0.000           62.50    
    272      1      5     28       0.000           62.50    
    273      1      5     29       0.000           62.50    
    274      1      5     30       0.000           62.50    
    275      1      5     31       0.000           62.50    
    276      1      5     32       0.000           62.50    
    277      1      5     33       0.000           62.50    
    278      1      5     34       0.000           62.50    
    279      1      5     35       0.000           62.50    
    280      1      5     36       0.000           62.50    
    281      1      5     37       0.000           62.50    
    282      1      5     38       0.000           62.50    
    283      1      5     39       0.000           62.50    
    284      1      5     40       0.000           62.50    
    285      1      5     41       0.000           62.50    
    286      1      5     42       0.000           62.50    
    287      1      5     43       0.000           62.50    
    288      1      5     44       0.000           62.50    
    289      1      5     45       0.000           62.50    
    290      1      5     46       0.000           62.50    
    291      1      5     47       0.000           62.50    
    292      1      5     48       0.000           62.50    
    293      1      5     49       0.000           62.50    
    294      1      5     50       0.000           62.50    
    295      1      5     51       0.000           62.50    
    296      1      5     52       0.000           62.50    
    297      1      5     53       0.000           62.50    
    298      1      5     54       0.000           62.50    
    299      1      5     55       0.000           62.50    
    300      1      5     56       0.000           62.50    
    301      1      5     57       0.000           62.50    
    302      1      5     58       0.000           62.50    
    303      1      5     59       0.000           62.50    
    304      1      5     60       0.000           62.50    
    305      1      5     61       0.000           62.50    
    306      1      6      1       0.000           62.50    
    307      1      6      2       0.000           62.50    
    308      1      6      3       0.000           62.50    
    309      1      6      4       0.000           62.50    
    310      1      6      5       0.000           62.50    
    311      1      6      6       0.000           62.50    
    312      1      6      7       0.000           62.50    
    313      1      6      8       0.000           62.50    
    314      1      6      9       0.000           62.50    
    315      1      6     10       0.000           62.50    
    316      1      6     11       0.000           62.50    
    317      1      6     12       0.000           62.50    
    318      1      6     13       0.000           62.50    
    319      1      6     14       0.000           62.50    
    320      1      6     15       0.000           62.50    
    321      1      6     16       0.000           62.50    
    322      1      6     17       0.000           62.50    
    323      1      6     18       0.000           62.50    
    324      1      6     19       0.000           62.50    
    325      1      6     20       0.000           62.50    
    326      1      6     21       0.000           62.50    
    327      1      6     22       0.000           62.50    
    328      1      6     23       0.000           62.50    
    329      1      6     24       0.000           62.50    
    330      1      6     25       0.000           62.50    
    331      1      6     26       0.000           62.50    
    332      1      6     27       0.000           62.50    
    333      1      6     28       0.000           62.50    
    334      1      6     29       0.000           62.50    
    335      1      6     30       0.000           62.50    
    336      1      6     31       0.000           62.50    
    337      1      6     32       0.000           62.50    
    338      1      6     33       0.000           62.50    
    339      1      6     34       0.000           62.50    
    340      1      6     35       0.000           62.50    
    341      1      6     36       0.000           62.50    
    342      1      6     37       0.000           62.50    
    343      1      6     38       0.000           62.50    
    344      1      6     39       0.000           62.50    
    345      1      6     40       0.000           62.50    
    346      1      6     41       0.000           62.50    
    347      1      6     42       0.000           62.50    
    348      1      6     43       0.000           62.50    
    349      1      6     44       0.000           62.50    
    350      1      6     45       0.000           62.50    
    351      1      6     46       0.000           62.50    
    352      1      6     47       0.000           62.50    
    353      1      6     48       0.000           62.50    
    354      1      6     49       0.000           62.50    
    355      1      6     50       0.000           62.50    
    356      1      6     51       0.000           62.50    
    357      1      6     52       0.000           62.50    
    358      1      6     53       0.000           62.50    
    359      1      6     54       0.000           62.50    
    360      1      6     55       0.000           62.50    
    361      1      6     56       0.000           62.50    
    362      1      6     57       0.000           62.50    
    363      1      6     58       0.000           62.50    
    364      1      6     59       0.000           62.50    
    365      1      6     60       0.000           62.50    
    366      1      6     61       0.000           62.50    
    367      1      7      1       0.000           62.50    
    368      1      7      2       0.000           62.50    
    369      1      7      3       0.000           62.50    
    370      1      7      4       0.000           62.50    
    371      1      7      5       0.000           62.50    
    372      1      7      6       0.000           62.50    
    373      1      7      7       0.000           62.50    
    374      1      7      8       0.000           62.50    
    375      1      7      9       0.000           62.50    
    376      1      7     10       0.000           62.50    
    377      1      7     11       0.000           62.50    
    378      1      7     12       0.000           62.50    
    379      1      7     13       0.000           62.50    
    380      1      7     14       0.000           62.50    
    381      1      7     15       0.000           62.50    
    382      1      7     16       0.000           62.50    
    383      1      7     17       0.000           62.50    
    384      1      7     18       0.000           62.50    
    385      1      7     19       0.000           62.50    
    386      1      7     20       0.000           62.50    
    387      1      7     21       0.000           62.50    
    388      1      7     22       0.000           62.50    
    389      1      7     23       0.000           62.50    
    390      1      7     24       0.000           62.50    
    391      1      7     25       0.000           62.50    
    392      1      7     26       0.000           62.50    
    393      1      7     27       0.000           62.50    
    394      1      7     28       0.000           62.50    
    395      1      7     29       0.000           62.50    
    396      1      7     30       0.000           62.50    
    397      1      7     31       0.000           62.50    
    398      1      7     32       0.000           62.50    
    399      1      7     33       0.000           62.50    
    400      1      7     34       0.000           62.50    
    401      1      7     35       0.000           62.50    
    402      1      7     36       0.000           62.50    
    403      1      7     37       0.000           62.50    
    404      1      7     38       0.000           62.50    
    405      1      7     39       0.000           62.50    
    406      1      7     40       0.000           62.50    
    407      1      7     41       0.000           62.50    
    408      1      7     42       0.000           62.50    
    409      1      7     43       0.000           62.50    
    410      1      7     44       0.000           62.50    
    411      1      7     45       0.000           62.50    
    412      1      7     46       0.000           62.50    
    413      1      7     47       0.000           62.50    
    414      1      7     48       0.000           62.50    
    415      1      7     49       0.000           62.50    
    416      1      7     50       0.000           62.50    
    417      1      7     51       0.000           62.50    
    418      1      7     52       0.000           62.50    
    419      1      7     53       0.000           62.50    
    420      1      7     54       0.000           62.50    
    421      1      7     55       0.000           62.50    
    422      1      7     56       0.000           62.50    
    423      1      7     57       0.000           62.50    
    424      1      7     58       0.000           62.50    
    425      1      7     59       0.000           62.50    
    426      1      7     60       0.000           62.50    
    427      1      7     61       0.000           62.50    
    428      1      8      1       0.000           62.50    
    429      1      8      2       0.000           62.50    
    430      1      8      3       0.000           62.50    
    431      1      8      4       0.000           62.50    
    432      1      8      5       0.000           62.50    
    433      1      8      6       0.000           62.50    
    434      1      8      7       0.000           62.50    
    435      1      8      8       0.000           62.50    
    436      1      8      9       0.000           62.50    
    437      1      8     10       0.000           62.50    
    438      1      8     11       0.000           62.50    
    439      1      8     12       0.000           62.50    
    440      1      8     13       0.000           62.50    
    441      1      8     14       0.000           62.50    
    442      1      8     15       0.000           62.50    
    443      1      8     16       0.000           62.50    
    444      1      8     17       0.000           62.50    
    445      1      8     18       0.000           62.50    
    446      1      8     19       0.000           62.50    
    447      1      8     20       0.000           62.50    
    448      1      8     21       0.000           62.50    
    449      1      8     22       0.000           62.50    
    450      1      8     23       0.000           62.50    
    451      1      8     24       0.000           62.50    
    452      1      8     25       0.000           62.50    
    453      1      8     26       0.000           62.50    
    454      1      8     27       0.000           62.50    
    455      1      8     28       0.000           62.50    
    456      1      8     29       0.000           62.50    
    457      1      8     30       0.000           62.50    
    458      1      8     31       0.000           62.50    
    459      1      8     32       0.000           62.50    
    460      1      8     33       0.000           62.50    
    461      1      8     34       0.000           62.50    
    462      1      8     35       0.000           62.50    
    463      1      8     36       0.000           62.50    
    464      1      8     37       0.000           62.50    
    465      1      8     38       0.000           62.50    
    466      1      8     39       0.000           62.50    
    467      1      8     40       0.000           62.50    
    468      1      8     41       0.000           62.50    
    469      1      8     42       0.000           62.50    
    470      1      8     43       0.000           62.50    
    471      1      8     44       0.000           62.50    
    472      1      8     45       0.000           62.50    
    473      1      8     46       0.000           62.50    
    474      1      8     47       0.000           62.50    
    475      1      8     48       0.000           62.50    
    476      1      8     49       0.000           62.50    
    477      1      8     50       0.000           62.50    
    478      1      8     51       0.000           62.50    
    479      1      8     52       0.000           62.50    
    480      1      8     53       0.000           62.50    
    481      1      8     54       0.000           62.50    
    482      1      8     55       0.000           62.50    
    483      1      8     56       0.000           62.50    
    484      1      8     57       0.000           62.50    
    485      1      8     58       0.000           62.50    
    486      1      8     59       0.000           62.50    
    487      1      8     60       0.000           62.50    
    488      1      8     61       0.000           62.50    
    489      1      9      1       0.000           62.50    
    490      1      9      2       0.000           62.50    
    491      1      9      3       0.000           62.50    
    492      1      9      4       0.000           62.50    
    493      1      9      5       0.000           62.50    
    494      1      9      6       0.000           62.50    
    495      1      9      7       0.000           62.50    
    496      1      9      8       0.000           62.50    
    497      1      9      9       0.000           62.50    
    498      1      9     10       0.000           62.50    
    499      1      9     11       0.000           62.50    
    500      1      9     12       0.000           62.50    
    501      1      9     13       0.000           62.50    
    502      1      9     14       0.000           62.50    
    503      1      9     15       0.000           62.50    
    504      1      9     16       0.000           62.50    
    505      1      9     17       0.000           62.50    
    506      1      9     18       0.000           62.50    
    507      1      9     19       0.000           62.50    
    508      1      9     20       0.000           62.50    
    509      1      9     21       0.000           62.50    
    510      1      9     22       0.000           62.50    
    511      1      9     23       0.000           62.50    
    512      1      9     24       0.000           62.50    
    513      1      9     25       0.000           62.50    
    514      1      9     26       0.000           62.50    
    515      1      9     27       0.000           62.50    
    516      1      9     28       0.000           62.50    
    517      1      9     29       0.000           62.50    
    518      1      9     30       0.000           62.50    
    519      1      9     31       0.000           62.50    
    520      1      9     32       0.000           62.50    
    521      1      9     33       0.000           62.50    
    522      1      9     34       0.000           62.50    
    523      1      9     35       0.000           62.50    
    524      1      9     36       0.000           62.50    
    525      1      9     37       0.000           62.50    
    526      1      9     38       0.000           62.50    
    527      1      9     39       0.000           62.50    
    528      1      9     40       0.000           62.50    
    529      1      9     41       0.000           62.50    
    530      1      9     42       0.000           62.50    
    531      1      9     43       0.000           62.50    
    532      1      9     44       0.000           62.50    
    533      1      9     45       0.000           62.50    
    534      1      9     46       0.000           62.50    
    535      1      9     47       0.000           62.50    
    536      1      9     48       0.000           62.50    
    537      1      9     49       0.000           62.50    
    538      1      9     50       0.000           62.50    
    539      1      9     51       0.000           62.50    
    540      1      9     52       0.000           62.50    
    541      1      9     53       0.000           62.50    
    542      1      9     54       0.000           62.50    
    543      1      9     55       0.000           62.50    
    544      1      9     56       0.000           62.50    
    545      1      9     57       0.000           62.50    
    546      1      9     58       0.000           62.50    
    547      1      9     59       0.000           62.50    
    548      1      9     60       0.000           62.50    
    549      1      9     61       0.000           62.50    
    550      1     10      1       0.000           62.50    
    551      1     10      2       0.000           62.50    
    552      1     10      3       0.000           62.50    
    553      1     10      4       0.000           62.50    
    554      1     10      5       0.000           62.50    
    555      1     10      6       0.000           62.50    
    556      1     10      7       0.000           62.50    
    557      1     10      8       0.000           62.50    
    558      1     10      9       0.000           62.50    
    559      1     10     10       0.000           62.50    
    560      1     10     11       0.000           62.50    
    561      1     10     12       0.000           62.50    
    562      1     10     13       0.000           62.50    
    563      1     10     14       0.000           62.50    
    564      1     10     15       0.000           62.50    
    565      1     10     16       0.000           62.50    
    566      1     10     17       0.000           62.50    
    567      1     10     18       0.000           62.50    
    568      1     10     19       0.000           62.50    
    569      1     10     20       0.000           62.50    
    570      1     10     21       0.000           62.50    
    571      1     10     22       0.000           62.50    
    572      1     10     23       0.000           62.50    
    573      1     10     24       0.000           62.50    
    574      1     10     25       0.000           62.50    
    575      1     10     26       0.000           62.50    
    576      1     10     27       0.000           62.50    
    577      1     10     28       0.000           62.50    
    578      1     10     29       0.000           62.50    
    579      1     10     30       0.000           62.50    
    580      1     10     31       0.000           62.50    
    581      1     10     32       0.000           62.50    
    582      1     10     33       0.000           62.50    
    583      1     10     34       0.000           62.50    
    584      1     10     35       0.000           62.50    
    585      1     10     36       0.000           62.50    
    586      1     10     37       0.000           62.50    
    587      1     10     38       0.000           62.50    
    588      1     10     39       0.000           62.50    
    589      1     10     40       0.000           62.50    
    590      1     10     41       0.000           62.50    
    591      1     10     42       0.000           62.50    
    592      1     10     43       0.000           62.50    
    593      1     10     44       0.000           62.50    
    594      1     10     45       0.000           62.50    
    595      1     10     46       0.000           62.50    
    596      1     10     47       0.000           62.50    
    597      1     10     48       0.000           62.50    
    598      1     10     49       0.000           62.50    
    599      1     10     50       0.000           62.50    
    600      1     10     51       0.000           62.50    
    601      1     10     52       0.000           62.50    
    602      1     10     53       0.000           62.50    
    603      1     10     54       0.000           62.50    
    604      1     10     55       0.000           62.50    
    605      1     10     56       0.000           62.50    
    606      1     10     57       0.000           62.50    
    607      1     10     58       0.000           62.50    
    608      1     10     59       0.000           62.50    
    609      1     10     60       0.000           62.50    
    610      1     10     61       0.000           62.50    
    611      1     11      1       0.000           62.50    
    612      1     11      2       0.000           62.50    
    613      1     11      3       0.000           62.50    
    614      1     11      4       0.000           62.50    
    615      1     11      5       0.000           62.50    
    616      1     11      6       0.000           62.50    
    617      1     11      7       0.000           62.50    
    618      1     11      8       0.000           62.50    
    619      1     11      9       0.000           62.50    
    620      1     11     10       0.000           62.50    
    621      1     11     52       0.000           62.50    
    622      1     11     53       0.000           62.50    
    623      1     11     54       0.000           62.50    
    624      1     11     55       0.000           62.50    
    625      1     11     56       0.000           62.50    
    626      1     11     57       0.000           62.50    
    627      1     11     58       0.000           62.50    
    628      1     11     59       0.000           62.50    
    629      1     11     60       0.000           62.50    
    630      1     11     61       0.000           62.50    
    631      1     12      1       0.000           62.50    
    632      1     12      2       0.000           62.50    
    633      1     12      3       0.000           62.50    
    634      1     12      4       0.000           62.50    
    635      1     12      5       0.000           62.50    
    636      1     12      6       0.000           62.50    
    637      1     12      7       0.000           62.50    
    638      1     12      8       0.000           62.50    
    639      1     12      9       0.000           62.50    
    640      1     12     10       0.000           62.50    
    641      1     12     52       0.000           62.50    
    642      1     12     53       0.000           62.50    
    643      1     12     54       0.000           62.50    
    644      1     12     55       0.000           62.50    
    645      1     12     56       0.000           62.50    
    646      1     12     57       0.000           62.50    
    647      1     12     58       0.000           62.50    
    648      1     12     59       0.000           62.50    
    649      1     12     60       0.000           62.50    
    650      1     12     61       0.000           62.50    
    651      1     13      1       0.000           62.50    
    652      1     13      2       0.000           62.50    
    653      1     13      3       0.000           62.50    
    654      1     13      4       0.000           62.50    
    655      1     13      5       0.000           62.50    
    656      1     13      6       0.000           62.50    
    657      1     13      7       0.000           62.50    
    658      1     13      8       0.000           62.50    
    659      1     13      9       0.000           62.50    
    660      1     13     10       0.000           62.50    
    661      1     13     52       0.000           62.50    
    662      1     13     53       0.000           62.50    
    663      1     13     54       0.000           62.50    
    664      1     13     55       0.000           62.50    
    665      1     13     56       0.000           62.50    
    666      1     13     57       0.000           62.50    
    667      1     13     58       0.000           62.50    
    668      1     13     59       0.000           62.50    
    669      1     13     60       0.000           62.50    
    670      1     13     61       0.000           62.50    
    671      1     14      1       0.000           62.50    
    672      1     14      2       0.000           62.50    
    673      1     14      3       0.000           62.50    
    674      1     14      4       0.000           62.50    
    675      1     14      5       0.000           62.50    
    676      1     14      6       0.000           62.50    
    677      1     14      7       0.000           62.50    
    678      1     14      8       0.000           62.50    
    679      1     14      9       0.000           62.50    
    680      1     14     10       0.000           62.50    
    681      1     14     52       0.000           62.50    
    682      1     14     53       0.000           62.50    
    683      1     14     54       0.000           62.50    
    684      1     14     55       0.000           62.50    
    685      1     14     56       0.000           62.50    
    686      1     14     57       0.000           62.50    
    687      1     14     58       0.000           62.50    
    688      1     14     59       0.000           62.50    
    689      1     14     60       0.000           62.50    
    690      1     14     61       0.000           62.50    
    691      1     15      1       0.000           62.50    
    692      1     15      2       0.000           62.50    
    693      1     15      3       0.000           62.50    
    694      1     15      4       0.000           62.50    
    695      1     15      5       0.000           62.50    
    696      1     15      6       0.000           62.50    
    697      1     15      7       0.000           62.50    
    698      1     15      8       0.000           62.50    
    699      1     15      9       0.000           62.50    
    700      1     15     10       0.000           62.50    
    701      1     15     52       0.000           62.50    
    702      1     15     53       0.000           62.50    
    703      1     15     54       0.000           62.50    
    704      1     15     55       0.000           62.50    
    705      1     15     56       0.000           62.50    
    706      1     15     57       0.000           62.50    
    707      1     15     58       0.000           62.50    
    708      1     15     59       0.000           62.50    
    709      1     15     60       0.000           62.50    
    710      1     15     61       0.000           62.50    
    711      1     16      1       0.000           62.50    
    712      1     16      2       0.000           62.50    
    713      1     16      3       0.000           62.50    
    714      1     16      4       0.000           62.50    
    715      1     16      5       0.000           62.50    
    716      1     16      6       0.000           62.50    
    717      1     16      7       0.000           62.50    
    718      1     16      8       0.000           62.50    
    719      1     16      9       0.000           62.50    
    720      1     16     10       0.000           62.50    
    721      1     16     52       0.000           62.50    
    722      1     16     53       0.000           62.50    
    723      1     16     54       0.000           62.50    
    724      1     16     55       0.000           62.50    
    725      1     16     56       0.000           62.50    
    726      1     16     57       0.000           62.50    
    727      1     16     58       0.000           62.50    
    728      1     16     59       0.000           62.50    
    729      1     16     60       0.000           62.50    
    730      1     16     61       0.000           62.50    
    731      1     17      1       0.000           62.50    
    732      1     17      2       0.000           62.50    
    733      1     17      3       0.000           62.50    
    734      1     17      4       0.000           62.50    
    735      1     17      5       0.000           62.50    
    736      1     17      6       0.000           62.50    
    737      1     17      7       0.000           62.50    
    738      1     17      8       0.000           62.50    
    739      1     17      9       0.000           62.50    
    740      1     17     10       0.000           62.50    
    741      1     17     52       0.000           62.50    
    742      1     17     53       0.000           62.50    
    743      1     17     54       0.000           62.50    
    744      1     17     55       0.000           62.50    
    745      1     17     56       0.000           62.50    
    746      1     17     57       0.000           62.50    
    747      1     17     58       0.000           62.50    
    748      1     17     59       0.000           62.50    
    749      1     17     60       0.000           62.50    
    750      1     17     61       0.000           62.50    
    751      1     18      1       0.000           62.50    
    752      1     18      2       0.000           62.50    
    753      1     18      3       0.000           62.50    
    754      1     18      4       0.000           62.50    
    755      1     18      5       0.000           62.50    
    756      1     18      6       0.000           62.50    
    757      1     18      7       0.000           62.50    
    758      1     18      8       0.000           62.50    
    759      1     18      9       0.000           62.50    
    760      1     18     10       0.000           62.50    
    761      1     18     52       0.000           62.50    
    762      1     18     53       0.000           62.50    
    763      1     18     54       0.000           62.50    
    764      1     18     55       0.000           62.50    
    765      1     18     56       0.000           62.50    
    766      1     18     57       0.000           62.50    
    767      1     18     58       0.000           62.50    
    768      1     18     59       0.000           62.50    
    769      1     18     60       0.000           62.50    
    770      1     18     61       0.000           62.50    
    771      1     19      1       0.000           62.50    
    772      1     19      2       0.000           62.50    
    773      1     19      3       0.000           62.50    
    774      1     19      4       0.000           62.50    
    775      1     19      5       0.000           62.50    
    776      1     19      6       0.000           62.50    
    777      1     19      7       0.000           62.50    
    778      1     19      8       0.000           62.50    
    779      1     19      9       0.000           62.50    
    780      1     19     10       0.000           62.50    
    781      1     19     52       0.000           62.50    
    782      1     19     53       0.000           62.50    
    783      1     19     54       0.000           62.50    
    784      1     19     55       0.000           62.50    
    785      1     19     56       0.000           62.50    
    786      1     19     57       0.000           62.50    
    787      1     19     58       0.000           62.50    
    788      1     19     59       0.000           62.50    
    789      1     19     60       0.000           62.50    
    790      1     19     61       0.000           62.50    
    791      1     20      1       0.000           62.50    
    792      1     20      2       0.000           62.50    
    793      1     20      3       0.000           62.50    
    794      1     20      4       0.000           62.50    
    795      1     20      5       0.000           62.50    
    796      1     20      6       0.000           62.50    
    797      1     20      7       0.000           62.50    
    798      1     20      8       0.000           62.50    
    799      1     20      9       0.000           62.50    
    800      1     20     10       0.000           62.50    
    801      1     20     52       0.000           62.50    
    802      1     20     53       0.000           62.50    
    803      1     20     54       0.000           62.50    
    804      1     20     55       0.000           62.50    
    805      1     20     56       0.000           62.50    
    806      1     20     57       0.000           62.50    
    807      1     20     58       0.000           62.50    
    808      1     20     59       0.000           62.50    
    809      1     20     60       0.000           62.50    
    810      1     20     61       0.000           62.50    
    811      1     21      1       0.000           62.50    
    812      1     21      2       0.000           62.50    
    813      1     21      3       0.000           62.50    
    814      1     21      4       0.000           62.50    
    815      1     21      5       0.000           62.50    
    816      1     21      6       0.000           62.50    
    817      1     21      7       0.000           62.50    
    818      1     21      8       0.000           62.50    
    819      1     21      9       0.000           62.50    
    820      1     21     10       0.000           62.50    
    821      1     21     52       0.000           62.50    
    822      1     21     53       0.000           62.50    
    823      1     21     54       0.000           62.50    
    824      1     21     55       0.000           62.50    
    825      1     21     56       0.000           62.50    
    826      1     21     57       0.000           62.50    
    827      1     21     58       0.000           62.50    
    828      1     21     59       0.000           62.50    
    829      1     21     60       0.000           62.50    
    830      1     21     61       0.000           62.50    
    831      1     22      1       0.000           62.50    
    832      1     22      2       0.000           62.50    
    833      1     22      3       0.000           62.50    
    834      1     22      4       0.000           62.50    
    835      1     22      5       0.000           62.50    
    836      1     22      6       0.000           62.50    
    837      1     22      7       0.000           62.50    
    838      1     22      8       0.000           62.50    
    839      1     22      9       0.000           62.50    
    840      1     22     10       0.000           62.50    
    841      1     22     52       0.000           62.50    
    842      1     22     53       0.000           62.50    
    843      1     22     54       0.000           62.50    
    844      1     22     55       0.000           62.50    
    845      1     22     56       0.000           62.50    
    846      1     22     57       0.000           62.50    
    847      1     22     58       0.000           62.50    
    848      1     22     59       0.000           62.50    
    849      1     22     60       0.000           62.50    
    850      1     22     61       0.000           62.50    
    851      1     23      1       0.000           62.50    
    852      1     23      2       0.000           62.50    
    853      1     23      3       0.000           62.50    
    854      1     23      4       0.000           62.50    
    855      1     23      5       0.000           62.50    
    856      1     23      6       0.000           62.50    
    857      1     23      7       0.000           62.50    
    858      1     23      8       0.000           62.50    
    859      1     23      9       0.000           62.50    
    860      1     23     10       0.000           62.50    
    861      1     23     52       0.000           62.50    
    862      1     23     53       0.000           62.50    
    863      1     23     54       0.000           62.50    
    864      1     23     55       0.000           62.50    
    865      1     23     56       0.000           62.50    
    866      1     23     57       0.000           62.50    
    867      1     23     58       0.000           62.50    
    868      1     23     59       0.000           62.50    
    869      1     23     60       0.000           62.50    
    870      1     23     61       0.000           62.50    
    871      1     24      1       0.000           62.50    
    872      1     24      2       0.000           62.50    
    873      1     24      3       0.000           62.50    
    874      1     24      4       0.000           62.50    
    875      1     24      5       0.000           62.50    
    876      1     24      6       0.000           62.50    
    877      1     24      7       0.000           62.50    
    878      1     24      8       0.000           62.50    
    879      1     24      9       0.000           62.50    
    880      1     24     10       0.000           62.50    
    881      1     24     52       0.000           62.50    
    882      1     24     53       0.000           62.50    
    883      1     24     54       0.000           62.50    
    884      1     24     55       0.000           62.50    
    885      1     24     56       0.000           62.50    
    886      1     24     57       0.000           62.50    
    887      1     24     58       0.000           62.50    
    888      1     24     59       0.000           62.50    
    889      1     24     60       0.000           62.50    
    890      1     24     61       0.000           62.50    
    891      1     25      1       0.000           62.50    
    892      1     25      2       0.000           62.50    
    893      1     25      3       0.000           62.50    
    894      1     25      4       0.000           62.50    
    895      1     25      5       0.000           62.50    
    896      1     25      6       0.000           62.50    
    897      1     25      7       0.000           62.50    
    898      1     25      8       0.000           62.50    
    899      1     25      9       0.000           62.50    
    900      1     25     10       0.000           62.50    
    901      1     25     52       0.000           62.50    
    902      1     25     53       0.000           62.50    
    903      1     25     54       0.000           62.50    
    904      1     25     55       0.000           62.50    
    905      1     25     56       0.000           62.50    
    906      1     25     57       0.000           62.50    
    907      1     25     58       0.000           62.50    
    908      1     25     59       0.000           62.50    
    909      1     25     60       0.000           62.50    
    910      1     25     61       0.000           62.50    
    911      1     26      1       0.000           62.50    
    912      1     26      2       0.000           62.50    
    913      1     26      3       0.000           62.50    
    914      1     26      4       0.000           62.50    
    915      1     26      5       0.000           62.50    
    916      1     26      6       0.000           62.50    
    917      1     26      7       0.000           62.50    
    918      1     26      8       0.000           62.50    
    919      1     26      9       0.000           62.50    
    920      1     26     10       0.000           62.50    
    921      1     26     52       0.000           62.50    
    922      1     26     53       0.000           62.50    
    923      1     26     54       0.000           62.50    
    924      1     26     55       0.000           62.50    
    925      1     26     56       0.000           62.50    
    926      1     26     57       0.000           62.50    
    927      1     26     58       0.000           62.50    
    928      1     26     59       0.000           62.50    
    929      1     26     60       0.000           62.50    
    930      1     26     61       0.000           62.50    
    931      1     27      1       0.000           62.50    
    932      1     27      2       0.000           62.50    
    933      1     27      3       0.000           62.50    
    934      1     27      4       0.000           62.50    
    935      1     27      5       0.000           62.50    
    936      1     27      6       0.000           62.50    
    937      1     27      7       0.000           62.50    
    938      1     27      8       0.000           62.50    
    939      1     27      9       0.000           62.50    
    940      1     27     10       0.000           62.50    
    941      1     27     52       0.000           62.50    
    942      1     27     53       0.000           62.50    
    943      1     27     54       0.000           62.50    
    944      1     27     55       0.000           62.50    
    945      1     27     56       0.000           62.50    
    946      1     27     57       0.000           62.50    
    947      1     27     58       0.000           62.50    
    948      1     27     59       0.000           62.50    
    949      1     27     60       0.000           62.50    
    950      1     27     61       0.000           62.50    
    951      1     28      1       0.000           62.50    
    952      1     28      2       0.000           62.50    
    953      1     28      3       0.000           62.50    
    954      1     28      4       0.000           62.50    
    955      1     28      5       0.000           62.50    
    956      1     28      6       0.000           62.50    
    957      1     28      7       0.000           62.50    
    958      1     28      8       0.000           62.50    
    959      1     28      9       0.000           62.50    
    960      1     28     10       0.000           62.50    
    961      1     28     52       0.000           62.50    
    962      1     28     53       0.000           62.50    
    963      1     28     54       0.000           62.50    
    964      1     28     55       0.000           62.50    
    965      1     28     56       0.000           62.50    
    966      1     28     57       0.000           62.50    
    967      1     28     58       0.000           62.50    
    968      1     28     59       0.000           62.50    
    969      1     28     60       0.000           62.50    
    970      1     28     61       0.000           62.50    
    971      1     29      1       0.000           62.50    
    972      1     29      2       0.000           62.50    
    973      1     29      3       0.000           62.50    
    974      1     29      4       0.000           62.50    
    975      1     29      5       0.000           62.50    
    976      1     29      6       0.000           62.50    
    977      1     29      7       0.000           62.50    
    978      1     29      8       0.000           62.50    
    979      1     29      9       0.000           62.50    
    980      1     29     10       0.000           62.50    
    981      1     29     52       0.000           62.50    
    982      1     29     53       0.000           62.50    
    983      1     29     54       0.000           62.50    
    984      1     29     55       0.000           62.50    
    985      1     29     56       0.000           62.50    
    986      1     29     57       0.000           62.50    
    987      1     29     58       0.000           62.50    
    988      1     29     59       0.000           62.50    
    989      1     29     60       0.000           62.50    
    990      1     29     61       0.000           62.50    
    991      1     30      1       0.000           62.50    
    992      1     30      2       0.000           62.50    
    993      1     30      3       0.000           62.50    
    994      1     30      4       0.000           62.50    
    995      1     30      5       0.000           62.50    
    996      1     30      6       0.000           62.50    
    997      1     30      7       0.000           62.50    
    998      1     30      8       0.000           62.50    
    999      1     30      9       0.000           62.50    
   1000      1     30     10       0.000           62.50    
   1001      1     30     52       0.000           62.50    
   1002      1     30     53       0.000           62.50    
   1003      1     30     54       0.000           62.50    
   1004      1     30     55       0.000           62.50    
   1005      1     30     56       0.000           62.50    
   1006      1     30     57       0.000           62.50    
   1007      1     30     58       0.000           62.50    
   1008      1     30     59       0.000           62.50    
   1009      1     30     60       0.000           62.50    
   1010      1     30     61       0.000           62.50    
   1011      1     31      1       0.000           62.50    
   1012      1     31      2       0.000           62.50    
   1013      1     31      3       0.000           62.50    
   1014      1     31      4       0.000           62.50    
   1015      1     31      5       0.000           62.50    
   1016      1     31      6       0.000           62.50    
   1017      1     31      7       0.000           62.50    
   1018      1     31      8       0.000           62.50    
   1019      1     31      9       0.000           62.50    
   1020      1     31     10       0.000           62.50    
   1021      1     31     52       0.000           62.50    
   1022      1     31     53       0.000           62.50    
   1023      1     31     54       0.000           62.50    
   1024      1     31     55       0.000           62.50    
   1025      1     31     56       0.000           62.50    
   1026      1     31     57       0.000           62.50    
   1027      1     31     58       0.000           62.50    
   1028      1     31     59       0.000           62.50    
   1029      1     31     60       0.000           62.50    
   1030      1     31     61       0.000           62.50    
   1031      1     32      1       0.000           62.50    
   1032      1     32      2       0.000           62.50    
   1033      1     32      3       0.000           62.50    
   1034      1     32      4       0.000           62.50    
   1035      1     32      5       0.000           62.50    
   1036      1     32      6       0.000           62.50    
   1037      1     32      7       0.000           62.50    
   1038      1     32      8       0.000           62.50    
   1039      1     32      9       0.000           62.50    
   1040      1     32     10       0.000           62.50    
   1041      1     32     52       0.000           62.50    
   1042      1     32     53       0.000           62.50    
   1043      1     32     54       0.000           62.50    
   1044      1     32     55       0.000           62.50    
   1045      1     32     56       0.000           62.50    
   1046      1     32     57       0.000           62.50    
   1047      1     32     58       0.000           62.50    
   1048      1     32     59       0.000           62.50    
   1049      1     32     60       0.000           62.50    
   1050      1     32     61       0.000           62.50    
   1051      1     33      1       0.000           62.50    
   1052      1     33      2       0.000           62.50    
   1053      1     33      3       0.000           62.50    
   1054      1     33      4       0.000           62.50    
   1055      1     33      5       0.000           62.50    
   1056      1     33      6       0.000           62.50    
   1057      1     33      7       0.000           62.50    
   1058      1     33      8       0.000           62.50    
   1059      1     33      9       0.000           62.50    
   1060      1     33     10       0.000           62.50    
   1061      1     33     52       0.000           62.50    
   1062      1     33     53       0.000           62.50    
   1063      1     33     54       0.000           62.50    
   1064      1     33     55       0.000           62.50    
   1065      1     33     56       0.000           62.50    
   1066      1     33     57       0.000           62.50    
   1067      1     33     58       0.000           62.50    
   1068      1     33     59       0.000           62.50    
   1069      1     33     60       0.000           62.50    
   1070      1     33     61       0.000           62.50    
   1071      1     34      1       0.000           62.50    
   1072      1     34      2       0.000           62.50    
   1073      1     34      3       0.000           62.50    
   1074      1     34      4       0.000           62.50    
   1075      1     34      5       0.000           62.50    
   1076      1     34      6       0.000           62.50    
   1077      1     34      7       0.000           62.50    
   1078      1     34      8       0.000           62.50    
   1079      1     34      9       0.000           62.50    
   1080      1     34     10       0.000           62.50    
   1081      1     34     52       0.000           62.50    
   1082      1     34     53       0.000           62.50    
   1083      1     34     54       0.000           62.50    
   1084      1     34     55       0.000           62.50    
   1085      1     34     56       0.000           62.50    
   1086      1     34     57       0.000           62.50    
   1087      1     34     58       0.000           62.50    
   1088      1     34     59       0.000           62.50    
   1089      1     34     60       0.000           62.50    
   1090      1     34     61       0.000           62.50    
   1091      1     35      1       0.000           62.50    
   1092      1     35      2       0.000           62.50    
   1093      1     35      3       0.000           62.50    
   1094      1     35      4       0.000           62.50    
   1095      1     35      5       0.000           62.50    
   1096      1     35      6       0.000           62.50    
   1097      1     35      7       0.000           62.50    
   1098      1     35      8       0.000           62.50    
   1099      1     35      9       0.000           62.50    
   1100      1     35     10       0.000           62.50    
   1101      1     35     52       0.000           62.50    
   1102      1     35     53       0.000           62.50    
   1103      1     35     54       0.000           62.50    
   1104      1     35     55       0.000           62.50    
   1105      1     35     56       0.000           62.50    
   1106      1     35     57       0.000           62.50    
   1107      1     35     58       0.000           62.50    
   1108      1     35     59       0.000           62.50    
   1109      1     35     60       0.000           62.50    
   1110      1     35     61       0.000           62.50    
   1111      1     36      1       0.000           62.50    
   1112      1     36      2       0.000           62.50    
   1113      1     36      3       0.000           62.50    
   1114      1     36      4       0.000           62.50    
   1115      1     36      5       0.000           62.50    
   1116      1     36      6       0.000           62.50    
   1117      1     36      7       0.000           62.50    
   1118      1     36      8       0.000           62.50    
   1119      1     36      9       0.000           62.50    
   1120      1     36     10       0.000           62.50    
   1121      1     36     52       0.000           62.50    
   1122      1     36     53       0.000           62.50    
   1123      1     36     54       0.000           62.50    
   1124      1     36     55       0.000           62.50    
   1125      1     36     56       0.000           62.50    
   1126      1     36     57       0.000           62.50    
   1127      1     36     58       0.000           62.50    
   1128      1     36     59       0.000           62.50    
   1129      1     36     60       0.000           62.50    
   1130      1     36     61       0.000           62.50    
   1131      1     37      1       0.000           62.50    
   1132      1     37      2       0.000           62.50    
   1133      1     37      3       0.000           62.50    
   1134      1     37      4       0.000           62.50    
   1135      1     37      5       0.000           62.50    
   1136      1     37      6       0.000           62.50    
   1137      1     37      7       0.000           62.50    
   1138      1     37      8       0.000           62.50    
   1139      1     37      9       0.000           62.50    
   1140      1     37     10       0.000           62.50    
   1141      1     37     52       0.000           62.50    
   1142      1     37     53       0.000           62.50    
   1143      1     37     54       0.000           62.50    
   1144      1     37     55       0.000           62.50    
   1145      1     37     56       0.000           62.50    
   1146      1     37     57       0.000           62.50    
[...]
 STRESS PERIOD=  3 TIMESTEP=172 LAYER=  2 ZONE=  2 ACTIVE CELLS= 1269 NUMBER OF EQUATIONS=    1269
 UBUDSV SAVING "      ZETASRF  1" ON UNIT 55 AT TIME STEP172, STRESS PERIOD    3

 HEAD WILL BE SAVED ON UNIT   51 AT END OF TIME STEP  172, STRESS PERIOD    3
 
 SOLVING FOR HEAD 
                                                   Max.-Head-Change                         Max.-Flux-Residual
  Residual-Control   Outer-Iter.   Inner-Iter.     Column Row Layer    Maximum-Head-Change  Column Row Layer    Maximum-Flux-Residual          L2-NORM 
          0                 1           2            36   31     2      -0.6944288864E-03      36   31    2        -0.4514501095E+00      0.9025523358E+00
          0                 2           1            36   30     2      -0.1301020042E-04      36   30    2        -0.4966073389E-03      0.4761372473E-02
          0                 3           1            33   33     2      -0.9912502578E-05      32   30    2        -0.3540943405E-03      0.3463639492E-02

    ------------------------------------------------
       NWT REQUIRED            3 OUTER ITERATIONS 
       AND A TOTAL OF          4 INNER ITERATIONS.
    ------------------------------------------------

 OUTPUT CONTROL FOR STRESS PERIOD    3   TIME STEP  173
    SAVE HEAD FOR ALL LAYERS
 SOLVING FOR ZETA FOR LAYER     1 ZONE     2

     727 UPPER PART EQS.       740 LOWER PART EQS.    BAND WIDTH + 1 =   34
 STRESS PERIOD=  3 TIMESTEP=173 LAYER=  1 ZONE=  2 ACTIVE CELLS= 1467 NUMBER OF EQUATIONS=    1467
 SOLVING FOR ZETA FOR LAYER     2 ZONE     2

     635 UPPER PART EQS.       634 LOWER PART EQS.    BAND WIDTH + 1 =   32
 STRESS PERIOD=  3 TIMESTEP=173 LAYER=  2 ZONE=  2 ACTIVE CELLS= 1269 NUMBER OF EQUATIONS=    1269
 UBUDSV SAVING "      ZETASRF  1" ON UNIT 55 AT TIME STEP173, STRESS PERIOD    3

 HEAD WILL BE SAVED ON UNIT   51 AT END OF TIME STEP  173, STRESS PERIOD    3
 
 SOLVING FOR HEAD 
                                                   Max.-Head-Change                         Max.-Flux-Residual
  Residual-Control   Outer-Iter.   Inner-Iter.     Column Row Layer    Maximum-Head-Change  Column Row Layer    Maximum-Flux-Residual          L2-NORM 
          0                 1           2            36   31     2      -0.7059479882E-03      36   31    2        -0.4603817463E+00      0.8406589002E+00
          0                 2           1            36   30     2      -0.1274690077E-04      36   30    2        -0.4983110950E-03      0.4453448317E-02
          0                 3           1            40   30     2      -0.8190217553E-05      40   30    2        -0.3372485018E-03      0.2994289811E-02

    ------------------------------------------------
       NWT REQUIRED            3 OUTER ITERATIONS 
       AND A TOTAL OF          4 INNER ITERATIONS.
    ------------------------------------------------

 OUTPUT CONTROL FOR STRESS PERIOD    3   TIME STEP  174
    SAVE HEAD FOR ALL LAYERS
 SOLVING FOR ZETA FOR LAYER     1 ZONE     2

     730 UPPER PART EQS.       745 LOWER PART EQS.    BAND WIDTH + 1 =   36
 STRESS PERIOD=  3 TIMESTEP=174 LAYER=  1 ZONE=  2 ACTIVE CELLS= 1475 NUMBER OF EQUATIONS=    1475
 SOLVING FOR ZETA FOR LAYER     2 ZONE     2

     635 UPPER PART EQS.       634 LOWER PART EQS.    BAND WIDTH + 1 =   32
 STRESS PERIOD=  3 TIMESTEP=174 LAYER=  2 ZONE=  2 ACTIVE CELLS= 1269 NUMBER OF EQUATIONS=    1269
 UBUDSV SAVING "      ZETASRF  1" ON UNIT 55 AT TIME STEP174, STRESS PERIOD    3

 HEAD WILL BE SAVED ON UNIT   51 AT END OF TIME STEP  174, STRESS PERIOD    3
 
 SOLVING FOR HEAD 
                                                   Max.-Head-Change                         Max.-Flux-Residual
  Residual-Control   Outer-Iter.   Inner-Iter.     Column Row Layer    Maximum-Head-Change  Column Row Layer    Maximum-Flux-Residual          L2-NORM 
          0                 1           2            36   31     2      -0.7168944289E-03      36   31    2        -0.4695081711E+00      0.7925654091E+00
          0                 2           1            37   33     2      -0.1497901809E-04      36   30    2        -0.5291153985E-03      0.5465183940E-02
          0                 3           1            38   33     1      -0.1126183188E-04      40   30    2        -0.3889237871E-03      0.3979664441E-02
          0                 4           1            36   30     2      -0.5047951084E-05      36   30    2        -0.2412818125E-03      0.2746630258E-02

    ------------------------------------------------
       NWT REQUIRED            4 OUTER ITERATIONS 
       AND A TOTAL OF          5 INNER ITERATIONS.
    ------------------------------------------------

 OUTPUT CONTROL FOR STRESS PERIOD    3   TIME STEP  175
    SAVE HEAD FOR ALL LAYERS
 SOLVING FOR ZETA FOR LAYER     1 ZONE     2

     728 UPPER PART EQS.       740 LOWER PART EQS.    BAND WIDTH + 1 =   34
 STRESS PERIOD=  3 TIMESTEP=175 LAYER=  1 ZONE=  2 ACTIVE CELLS= 1468 NUMBER OF EQUATIONS=    1468
 SOLVING FOR ZETA FOR LAYER     2 ZONE     2

     635 UPPER PART EQS.       634 LOWER PART EQS.    BAND WIDTH + 1 =   32
 STRESS PERIOD=  3 TIMESTEP=175 LAYER=  2 ZONE=  2 ACTIVE CELLS= 1269 NUMBER OF EQUATIONS=    1269
 UBUDSV SAVING "      ZETASRF  1" ON UNIT 55 AT TIME STEP175, STRESS PERIOD    3

 HEAD WILL BE SAVED ON UNIT   51 AT END OF TIME STEP  175, STRESS PERIOD    3
 
 SOLVING FOR HEAD 
                                                   Max.-Head-Change                         Max.-Flux-Residual
  Residual-Control   Outer-Iter.   Inner-Iter.     Column Row Layer    Maximum-Head-Change  Column Row Layer    Maximum-Flux-Residual          L2-NORM 
          0                 1           2            36   31     2      -0.7258249611E-03      36   31    2        -0.4789366722E+00      0.8389098458E+00
          0                 2           1            36   30     2      -0.1311050174E-04      36   30    2        -0.4895005304E-03      0.4657503984E-02
          0                 3           1            32   30     2      -0.1065487271E-04      32   30    2        -0.3469884387E-03      0.3455605996E-02
          0                 4           1            36   30     2      -0.4280773485E-05      36   30    2        -0.2026001255E-03      0.2458805987E-02

    ------------------------------------------------
       NWT REQUIRED            4 OUTER ITERATIONS 
       AND A TOTAL OF          5 INNER ITERATIONS.
    ------------------------------------------------

 OUTPUT CONTROL FOR STRESS PERIOD    3   TIME STEP  176
    SAVE HEAD FOR ALL LAYERS
 SOLVING FOR ZETA FOR LAYER     1 ZONE     2

     732 UPPER PART EQS.       738 LOWER PART EQS.    BAND WIDTH + 1 =   28
 STRESS PERIOD=  3 TIMESTEP=176 LAYER=  1 ZONE=  2 ACTIVE CELLS= 1470 NUMBER OF EQUATIONS=    1470
 SOLVING FOR ZETA FOR LAYER     2 ZONE     2

     635 UPPER PART EQS.       634 LOWER PART EQS.    BAND WIDTH + 1 =   32
 STRESS PERIOD=  3 TIMESTEP=176 LAYER=  2 ZONE=  2 ACTIVE CELLS= 1269 NUMBER OF EQUATIONS=    1269
 UBUDSV SAVING "      ZETASRF  1" ON UNIT 55 AT TIME STEP176, STRESS PERIOD    3

 HEAD WILL BE SAVED ON UNIT   51 AT END OF TIME STEP  176, STRESS PERIOD    3
 
 SOLVING FOR HEAD 
                                                   Max.-Head-Change                         Max.-Flux-Residual
  Residual-Control   Outer-Iter.   Inner-Iter.     Column Row Layer    Maximum-Head-Change  Column Row Layer    Maximum-Flux-Residual          L2-NORM 
          0                 1           2            36   31     2      -0.7353815644E-03      36   31    2        -0.4887232780E+00      0.9507824585E+00
          0                 2           1            36   30     2      -0.1282225775E-04      36   30    2        -0.4715740470E-03      0.4614324475E-02
          0                 3           1            32   30     2      -0.1017426268E-04      32   30    2        -0.3326322715E-03      0.3428179723E-02
          0                 4           1            36   30     2      -0.4190740187E-05      36   30    2        -0.1842081512E-03      0.2453830544E-02

    ------------------------------------------------
       NWT REQUIRED            4 OUTER ITERATIONS 
       AND A TOTAL OF          5 INNER ITERATIONS.
    ------------------------------------------------

 OUTPUT CONTROL FOR STRESS PERIOD    3   TIME STEP  177
    SAVE HEAD FOR ALL LAYERS
 SOLVING FOR ZETA FOR LAYER     1 ZONE     2

     729 UPPER PART EQS.       739 LOWER PART EQS.    BAND WIDTH + 1 =   31
 STRESS PERIOD=  3 TIMESTEP=177 LAYER=  1 ZONE=  2 ACTIVE CELLS= 1468 NUMBER OF EQUATIONS=    1468
 SOLVING FOR ZETA FOR LAYER     2 ZONE     2

     635 UPPER PART EQS.       634 LOWER PART EQS.    BAND WIDTH + 1 =   32
 STRESS PERIOD=  3 TIMESTEP=177 LAYER=  2 ZONE=  2 ACTIVE CELLS= 1269 NUMBER OF EQUATIONS=    1269
 UBUDSV SAVING "      ZETASRF  1" ON UNIT 55 AT TIME STEP177, STRESS PERIOD    3

 HEAD WILL BE SAVED ON UNIT   51 AT END OF TIME STEP  177, STRESS PERIOD    3
 
 SOLVING FOR HEAD 
                                                   Max.-Head-Change                         Max.-Flux-Residual
  Residual-Control   Outer-Iter.   Inner-Iter.     Column Row Layer    Maximum-Head-Change  Column Row Layer    Maximum-Flux-Residual          L2-NORM 
          0                 1           2            36   31     2      -0.7480009197E-03      36   31    2        -0.4988374710E+00      0.1011904416E+01
          0                 2           1            36   32     2      -0.1380808653E-04      36   30    2        -0.4982471167E-03      0.4922094253E-02
          0                 3           1            33   33     2      -0.9295009549E-05      40   30    2        -0.3217938805E-03      0.3397446507E-02

    ------------------------------------------------
       NWT REQUIRED            3 OUTER ITERATIONS 
       AND A TOTAL OF          4 INNER ITERATIONS.
    ------------------------------------------------

 OUTPUT CONTROL FOR STRESS PERIOD    3   TIME STEP  178
    SAVE HEAD FOR ALL LAYERS
 SOLVING FOR ZETA FOR LAYER     1 ZONE     2

     727 UPPER PART EQS.       742 LOWER PART EQS.    BAND WIDTH + 1 =   36
 STRESS PERIOD=  3 TIMESTEP=178 LAYER=  1 ZONE=  2 ACTIVE CELLS= 1469 NUMBER OF EQUATIONS=    1469
 SOLVING FOR ZETA FOR LAYER     2 ZONE     2

     635 UPPER PART EQS.       634 LOWER PART EQS.    BAND WIDTH + 1 =   32
 STRESS PERIOD=  3 TIMESTEP=178 LAYER=  2 ZONE=  2 ACTIVE CELLS= 1269 NUMBER OF EQUATIONS=    1269
 UBUDSV SAVING "      ZETASRF  1" ON UNIT 55 AT TIME STEP178, STRESS PERIOD    3

 HEAD WILL BE SAVED ON UNIT   51 AT END OF TIME STEP  178, STRESS PERIOD    3
 
 SOLVING FOR HEAD 
                                                   Max.-Head-Change                         Max.-Flux-Residual
  Residual-Control   Outer-Iter.   Inner-Iter.     Column Row Layer    Maximum-Head-Change  Column Row Layer    Maximum-Flux-Residual          L2-NORM 
          0                 1           2            36   31     2      -0.7620325327E-03      36   31    2        -0.5093126297E+00      0.8612764265E+00
          0                 2           1            37   31     2      -0.1336142023E-04      36   30    2        -0.4993518353E-03      0.4684504381E-02
          0                 3           1            40   30     2      -0.7502773095E-05      40   30    2        -0.3361552731E-03      0.3004757992E-02

    ------------------------------------------------
       NWT REQUIRED            3 OUTER ITERATIONS 
       AND A TOTAL OF          4 INNER ITERATIONS.
    ------------------------------------------------

 OUTPUT CONTROL FOR STRESS PERIOD    3   TIME STEP  179
    SAVE HEAD FOR ALL LAYERS
 SOLVING FOR ZETA FOR LAYER     1 ZONE     2

     732 UPPER PART EQS.       743 LOWER PART EQS.    BAND WIDTH + 1 =   32
 STRESS PERIOD=  3 TIMESTEP=179 LAYER=  1 ZONE=  2 ACTIVE CELLS= 1475 NUMBER OF EQUATIONS=    1475
 SOLVING FOR ZETA FOR LAYER     2 ZONE     2

     635 UPPER PART EQS.       634 LOWER PART EQS.    BAND WIDTH + 1 =   32
 STRESS PERIOD=  3 TIMESTEP=179 LAYER=  2 ZONE=  2 ACTIVE CELLS= 1269 NUMBER OF EQUATIONS=    1269
 UBUDSV SAVING "      ZETASRF  1" ON UNIT 55 AT TIME STEP179, STRESS PERIOD    3

 HEAD WILL BE SAVED ON UNIT   51 AT END OF TIME STEP  179, STRESS PERIOD    3
 
 SOLVING FOR HEAD 
                                                   Max.-Head-Change                         Max.-Flux-Residual
  Residual-Control   Outer-Iter.   Inner-Iter.     Column Row Layer    Maximum-Head-Change  Column Row Layer    Maximum-Flux-Residual          L2-NORM 
          0                 1           2            36   31     2      -0.7744265743E-03      36   31    2        -0.5201892853E+00      0.8176610907E+00
          0                 2           1            36   32     2      -0.1350185349E-04      36   30    2        -0.5087036177E-03      0.5115178779E-02
          0                 3           1            32   30     2      -0.1302961089E-04      32   30    2        -0.3865245768E-03      0.3933399248E-02
          0                 4           1            36   30     2      -0.4589924663E-05      36   30    2        -0.2317460460E-03      0.2823088208E-02

    ------------------------------------------------
       NWT REQUIRED            4 OUTER ITERATIONS 
       AND A TOTAL OF          5 INNER ITERATIONS.
    ------------------------------------------------

 OUTPUT CONTROL FOR STRESS PERIOD    3   TIME STEP  180
    PRINT BUDGET
    SAVE HEAD FOR ALL LAYERS
 SOLVING FOR ZETA FOR LAYER     1 ZONE     2

     726 UPPER PART EQS.       739 LOWER PART EQS.    BAND WIDTH + 1 =   34
 STRESS PERIOD=  3 TIMESTEP=180 LAYER=  1 ZONE=  2 ACTIVE CELLS= 1465 NUMBER OF EQUATIONS=    1465
 SOLVING FOR ZETA FOR LAYER     2 ZONE     2

     635 UPPER PART EQS.       634 LOWER PART EQS.    BAND WIDTH + 1 =   32
 STRESS PERIOD=  3 TIMESTEP=180 LAYER=  2 ZONE=  2 ACTIVE CELLS= 1269 NUMBER OF EQUATIONS=    1269
 UBUDSV SAVING "      ZETASRF  1" ON UNIT 55 AT TIME STEP180, STRESS PERIOD    3


                      VOLUMETRIC SWI ZONE BUDGET FOR ENTIRE MODEL
                     AT END OF TIME STEP  180 IN STRESS PERIOD   3
                                      ZONE     1
  -----------------------------------------------------------------------------------

        CUMULATIVE VOLUMES      L**3       RATES FOR THIS TIME STEP      L**3/T
        ------------------                 ------------------------

              IN:                                      IN:
              ---                                      ---
             BOUNDARIES =   141107232.0000            BOUNDARIES =        1680.0000
          CONSTANT HEAD =           0.0000         CONSTANT HEAD =           0.0000
            ZONE CHANGE =     1619780.2500           ZONE CHANGE =          73.0773
       ZONE CHG TIP/TOE =      436892.1250      ZONE CHG TIP/TOE =           4.1643
            ZONE MIXING =           0.0000           ZONE MIXING =           0.0000

               TOTAL IN =   143163904.0000              TOTAL IN =        1757.2416

             OUT:                                     OUT:
             ----                                     ----
             BOUNDARIES =   124531120.0000            BOUNDARIES =        1750.0103
          CONSTANT HEAD =           0.0000         CONSTANT HEAD =           0.0000
            ZONE CHANGE =    18921386.0000           ZONE CHANGE =           3.1276
       ZONE CHG TIP/TOE =      472161.1250      ZONE CHG TIP/TOE =           4.2139
            ZONE MIXING =           0.0000           ZONE MIXING =           0.0000

              TOTAL OUT =   143924672.0000             TOTAL OUT =        1757.3518

               IN - OUT =     -760768.0000              IN - OUT =          -0.1102

    PERCENT DISCREPANCY =          -0.53     PERCENT DISCREPANCY =          -0.01



                      VOLUMETRIC SWI ZONE BUDGET FOR ENTIRE MODEL
                     AT END OF TIME STEP  180 IN STRESS PERIOD   3
                                      ZONE     2
  -----------------------------------------------------------------------------------

        CUMULATIVE VOLUMES      L**3       RATES FOR THIS TIME STEP      L**3/T
        ------------------                 ------------------------

              IN:                                      IN:
              ---                                      ---
             BOUNDARIES =     1225126.3750            BOUNDARIES =          94.9277
          CONSTANT HEAD =           0.0000         CONSTANT HEAD =           0.0000
            ZONE CHANGE =    18878152.0000           ZONE CHANGE =           2.8108
       ZONE CHG TIP/TOE =     1209886.3750      ZONE CHG TIP/TOE =           4.2139
            ZONE MIXING =           0.0000           ZONE MIXING =           0.0000

               TOTAL IN =    21313164.0000              TOTAL IN =         101.9524

             OUT:                                     OUT:
             ----                                     ----
             BOUNDARIES =    17799486.0000            BOUNDARIES =          25.0000
          CONSTANT HEAD =           0.0000         CONSTANT HEAD =           0.0000
            ZONE CHANGE =     2357504.5000           ZONE CHANGE =          73.0773
       ZONE CHG TIP/TOE =      393680.6875      ZONE CHG TIP/TOE =           3.8475
            ZONE MIXING =           0.0000           ZONE MIXING =           0.0000

              TOTAL OUT =    20550670.0000             TOTAL OUT =         101.9248

               IN - OUT =      762494.0000              IN - OUT =       2.7588E-02

    PERCENT DISCREPANCY =           3.64     PERCENT DISCREPANCY =           0.03


 HEAD WILL BE SAVED ON UNIT   51 AT END OF TIME STEP  180, STRESS PERIOD    3
1
  VOLUMETRIC BUDGET FOR ENTIRE MODEL AT END OF TIME STEP  180, STRESS PERIOD   3
  ------------------------------------------------------------------------------

     CUMULATIVE VOLUMES      L**3       RATES FOR THIS TIME STEP      L**3/T
     ------------------                 ------------------------

           IN:                                      IN:
           ---                                      ---
             STORAGE =           0.0000               STORAGE =           0.0000
       CONSTANT HEAD =           0.0000         CONSTANT HEAD =           0.0000
               WELLS =   141120128.0000                 WELLS =        1681.0000
     HEAD DEP BOUNDS =     1225126.3750       HEAD DEP BOUNDS =          94.9277
          SWIADDTOCH =           0.0000            SWIADDTOCH =           0.0000

            TOTAL IN =   142345248.0000              TOTAL IN =        1775.9277

          OUT:                                     OUT:
          ----                                     ----
             STORAGE =           0.0000               STORAGE =           0.0000
       CONSTANT HEAD =           0.0000         CONSTANT HEAD =           0.0000
               WELLS =     2901750.0000                 WELLS =         275.0000
     HEAD DEP BOUNDS =   139439680.0000       HEAD DEP BOUNDS =        1501.0103
          SWIADDTOCH =           0.0000            SWIADDTOCH =           0.0000

           TOTAL OUT =   142341424.0000             TOTAL OUT =        1776.0103

            IN - OUT =        3824.0000              IN - OUT =      -8.2520E-02

 PERCENT DISCREPANCY =           0.00     PERCENT DISCREPANCY =          -0.00






         TIME SUMMARY AT END OF TIME STEP  180 IN STRESS PERIOD    3
                    SECONDS     MINUTES      HOURS       DAYS        YEARS
                    -----------------------------------------------------------
   TIME STEP LENGTH 3.15360E+06  52560.      876.00      36.500     9.99316E-02
 STRESS PERIOD TIME 5.67648E+08 9.46080E+06 1.57680E+05  6570.0      17.988    
         TOTAL TIME 7.25328E+09 1.20888E+08 2.01480E+06  83950.      229.84    
1

 Run end date and time (yyyy/mm/dd hh:mm:ss): 2015/09/11 16:29:05
 Elapsed run time: 50.069 Seconds

